
---------- Begin Simulation Statistics ----------
sim_seconds                                  0.000627                       # Number of seconds simulated
sim_ticks                                   627316500                       # Number of ticks simulated
final_tick                                  627316500                       # Number of ticks from beginning of simulation (restored from checkpoints and never reset)
sim_freq                                 1000000000000                       # Frequency of simulated ticks
host_inst_rate                                 340189                       # Simulator instruction rate (inst/s)
host_op_rate                                   348529                       # Simulator op (including micro ops) rate (op/s)
host_tick_rate                              119102535                       # Simulator tick rate (ticks/s)
host_mem_usage                                 643784                       # Number of bytes of host memory used
host_seconds                                     5.27                       # Real time elapsed on the host
sim_insts                                     1791777                       # Number of instructions simulated
sim_ops                                       1835708                       # Number of ops (including micro ops) simulated
system.voltage_domain.voltage                       1                       # Voltage in Volts
system.clk_domain.clock                          1000                       # Clock period in ticks
system.mem_ctrls.bytes_read::cpu.inst           88128                       # Number of bytes read from this memory
system.mem_ctrls.bytes_read::cpu.data          130176                       # Number of bytes read from this memory
system.mem_ctrls.bytes_read::total             218304                       # Number of bytes read from this memory
system.mem_ctrls.bytes_inst_read::cpu.inst        88128                       # Number of instructions bytes read from this memory
system.mem_ctrls.bytes_inst_read::total         88128                       # Number of instructions bytes read from this memory
system.mem_ctrls.bytes_written::writebacks        44672                       # Number of bytes written to this memory
system.mem_ctrls.bytes_written::total           44672                       # Number of bytes written to this memory
system.mem_ctrls.num_reads::cpu.inst             1377                       # Number of read requests responded to by this memory
system.mem_ctrls.num_reads::cpu.data             2034                       # Number of read requests responded to by this memory
system.mem_ctrls.num_reads::total                3411                       # Number of read requests responded to by this memory
system.mem_ctrls.num_writes::writebacks           698                       # Number of write requests responded to by this memory
system.mem_ctrls.num_writes::total                698                       # Number of write requests responded to by this memory
system.mem_ctrls.bw_read::cpu.inst          140484110                       # Total read bandwidth from this memory (bytes/s)
system.mem_ctrls.bw_read::cpu.data          207512476                       # Total read bandwidth from this memory (bytes/s)
system.mem_ctrls.bw_read::total             347996585                       # Total read bandwidth from this memory (bytes/s)
system.mem_ctrls.bw_inst_read::cpu.inst     140484110                       # Instruction read bandwidth from this memory (bytes/s)
system.mem_ctrls.bw_inst_read::total        140484110                       # Instruction read bandwidth from this memory (bytes/s)
system.mem_ctrls.bw_write::writebacks        71211263                       # Write bandwidth from this memory (bytes/s)
system.mem_ctrls.bw_write::total             71211263                       # Write bandwidth from this memory (bytes/s)
system.mem_ctrls.bw_total::writebacks        71211263                       # Total bandwidth to/from this memory (bytes/s)
system.mem_ctrls.bw_total::cpu.inst         140484110                       # Total bandwidth to/from this memory (bytes/s)
system.mem_ctrls.bw_total::cpu.data         207512476                       # Total bandwidth to/from this memory (bytes/s)
system.mem_ctrls.bw_total::total            419207848                       # Total bandwidth to/from this memory (bytes/s)
system.mem_ctrls.readReqs                        3412                       # Number of read requests accepted
system.mem_ctrls.writeReqs                        698                       # Number of write requests accepted
system.mem_ctrls.readBursts                      3412                       # Number of DRAM read bursts, including those serviced by the write queue
system.mem_ctrls.writeBursts                      698                       # Number of DRAM write bursts, including those merged in the write queue
system.mem_ctrls.bytesReadDRAM                 166336                       # Total number of bytes read from DRAM
system.mem_ctrls.bytesReadWrQ                   52032                       # Total number of bytes read from write queue
system.mem_ctrls.bytesWritten                    7168                       # Total number of bytes written to DRAM
system.mem_ctrls.bytesReadSys                  218368                       # Total read bytes from the system interface side
system.mem_ctrls.bytesWrittenSys                44672                       # Total written bytes from the system interface side
system.mem_ctrls.servicedByWrQ                    813                       # Number of DRAM read bursts serviced by the write queue
system.mem_ctrls.mergedWrBursts                   564                       # Number of DRAM write bursts merged with an existing one
system.mem_ctrls.neitherReadNorWriteReqs            0                       # Number of requests that are neither read nor write
system.mem_ctrls.perBankRdBursts::0               293                       # Per bank write bursts
system.mem_ctrls.perBankRdBursts::1                51                       # Per bank write bursts
system.mem_ctrls.perBankRdBursts::2                66                       # Per bank write bursts
system.mem_ctrls.perBankRdBursts::3               120                       # Per bank write bursts
system.mem_ctrls.perBankRdBursts::4               396                       # Per bank write bursts
system.mem_ctrls.perBankRdBursts::5               206                       # Per bank write bursts
system.mem_ctrls.perBankRdBursts::6               432                       # Per bank write bursts
system.mem_ctrls.perBankRdBursts::7               177                       # Per bank write bursts
system.mem_ctrls.perBankRdBursts::8               246                       # Per bank write bursts
system.mem_ctrls.perBankRdBursts::9               154                       # Per bank write bursts
system.mem_ctrls.perBankRdBursts::10               80                       # Per bank write bursts
system.mem_ctrls.perBankRdBursts::11               38                       # Per bank write bursts
system.mem_ctrls.perBankRdBursts::12              190                       # Per bank write bursts
system.mem_ctrls.perBankRdBursts::13               35                       # Per bank write bursts
system.mem_ctrls.perBankRdBursts::14              104                       # Per bank write bursts
system.mem_ctrls.perBankRdBursts::15               11                       # Per bank write bursts
system.mem_ctrls.perBankWrBursts::0                 0                       # Per bank write bursts
system.mem_ctrls.perBankWrBursts::1                 0                       # Per bank write bursts
system.mem_ctrls.perBankWrBursts::2                 0                       # Per bank write bursts
system.mem_ctrls.perBankWrBursts::3                 0                       # Per bank write bursts
system.mem_ctrls.perBankWrBursts::4                37                       # Per bank write bursts
system.mem_ctrls.perBankWrBursts::5                54                       # Per bank write bursts
system.mem_ctrls.perBankWrBursts::6                14                       # Per bank write bursts
system.mem_ctrls.perBankWrBursts::7                 6                       # Per bank write bursts
system.mem_ctrls.perBankWrBursts::8                 1                       # Per bank write bursts
system.mem_ctrls.perBankWrBursts::9                 0                       # Per bank write bursts
system.mem_ctrls.perBankWrBursts::10                0                       # Per bank write bursts
system.mem_ctrls.perBankWrBursts::11                0                       # Per bank write bursts
system.mem_ctrls.perBankWrBursts::12                0                       # Per bank write bursts
system.mem_ctrls.perBankWrBursts::13                0                       # Per bank write bursts
system.mem_ctrls.perBankWrBursts::14                0                       # Per bank write bursts
system.mem_ctrls.perBankWrBursts::15                0                       # Per bank write bursts
system.mem_ctrls.numRdRetry                         0                       # Number of times read queue was full causing retry
system.mem_ctrls.numWrRetry                         0                       # Number of times write queue was full causing retry
system.mem_ctrls.totGap                     627307500                       # Total gap between requests
system.mem_ctrls.readPktSize::0                     0                       # Read request sizes (log2)
system.mem_ctrls.readPktSize::1                     0                       # Read request sizes (log2)
system.mem_ctrls.readPktSize::2                     0                       # Read request sizes (log2)
system.mem_ctrls.readPktSize::3                     0                       # Read request sizes (log2)
system.mem_ctrls.readPktSize::4                     0                       # Read request sizes (log2)
system.mem_ctrls.readPktSize::5                     0                       # Read request sizes (log2)
system.mem_ctrls.readPktSize::6                  3412                       # Read request sizes (log2)
system.mem_ctrls.writePktSize::0                    0                       # Write request sizes (log2)
system.mem_ctrls.writePktSize::1                    0                       # Write request sizes (log2)
system.mem_ctrls.writePktSize::2                    0                       # Write request sizes (log2)
system.mem_ctrls.writePktSize::3                    0                       # Write request sizes (log2)
system.mem_ctrls.writePktSize::4                    0                       # Write request sizes (log2)
system.mem_ctrls.writePktSize::5                    0                       # Write request sizes (log2)
system.mem_ctrls.writePktSize::6                  698                       # Write request sizes (log2)
system.mem_ctrls.rdQLenPdf::0                    1557                       # What read queue length does an incoming req see
system.mem_ctrls.rdQLenPdf::1                     721                       # What read queue length does an incoming req see
system.mem_ctrls.rdQLenPdf::2                     253                       # What read queue length does an incoming req see
system.mem_ctrls.rdQLenPdf::3                      53                       # What read queue length does an incoming req see
system.mem_ctrls.rdQLenPdf::4                      11                       # What read queue length does an incoming req see
system.mem_ctrls.rdQLenPdf::5                       4                       # What read queue length does an incoming req see
system.mem_ctrls.rdQLenPdf::6                       0                       # What read queue length does an incoming req see
system.mem_ctrls.rdQLenPdf::7                       0                       # What read queue length does an incoming req see
system.mem_ctrls.rdQLenPdf::8                       0                       # What read queue length does an incoming req see
system.mem_ctrls.rdQLenPdf::9                       0                       # What read queue length does an incoming req see
system.mem_ctrls.rdQLenPdf::10                      0                       # What read queue length does an incoming req see
system.mem_ctrls.rdQLenPdf::11                      0                       # What read queue length does an incoming req see
system.mem_ctrls.rdQLenPdf::12                      0                       # What read queue length does an incoming req see
system.mem_ctrls.rdQLenPdf::13                      0                       # What read queue length does an incoming req see
system.mem_ctrls.rdQLenPdf::14                      0                       # What read queue length does an incoming req see
system.mem_ctrls.rdQLenPdf::15                      0                       # What read queue length does an incoming req see
system.mem_ctrls.rdQLenPdf::16                      0                       # What read queue length does an incoming req see
system.mem_ctrls.rdQLenPdf::17                      0                       # What read queue length does an incoming req see
system.mem_ctrls.rdQLenPdf::18                      0                       # What read queue length does an incoming req see
system.mem_ctrls.rdQLenPdf::19                      0                       # What read queue length does an incoming req see
system.mem_ctrls.rdQLenPdf::20                      0                       # What read queue length does an incoming req see
system.mem_ctrls.rdQLenPdf::21                      0                       # What read queue length does an incoming req see
system.mem_ctrls.rdQLenPdf::22                      0                       # What read queue length does an incoming req see
system.mem_ctrls.rdQLenPdf::23                      0                       # What read queue length does an incoming req see
system.mem_ctrls.rdQLenPdf::24                      0                       # What read queue length does an incoming req see
system.mem_ctrls.rdQLenPdf::25                      0                       # What read queue length does an incoming req see
system.mem_ctrls.rdQLenPdf::26                      0                       # What read queue length does an incoming req see
system.mem_ctrls.rdQLenPdf::27                      0                       # What read queue length does an incoming req see
system.mem_ctrls.rdQLenPdf::28                      0                       # What read queue length does an incoming req see
system.mem_ctrls.rdQLenPdf::29                      0                       # What read queue length does an incoming req see
system.mem_ctrls.rdQLenPdf::30                      0                       # What read queue length does an incoming req see
system.mem_ctrls.rdQLenPdf::31                      0                       # What read queue length does an incoming req see
system.mem_ctrls.wrQLenPdf::0                       1                       # What write queue length does an incoming req see
system.mem_ctrls.wrQLenPdf::1                       1                       # What write queue length does an incoming req see
system.mem_ctrls.wrQLenPdf::2                       1                       # What write queue length does an incoming req see
system.mem_ctrls.wrQLenPdf::3                       1                       # What write queue length does an incoming req see
system.mem_ctrls.wrQLenPdf::4                       1                       # What write queue length does an incoming req see
system.mem_ctrls.wrQLenPdf::5                       1                       # What write queue length does an incoming req see
system.mem_ctrls.wrQLenPdf::6                       1                       # What write queue length does an incoming req see
system.mem_ctrls.wrQLenPdf::7                       1                       # What write queue length does an incoming req see
system.mem_ctrls.wrQLenPdf::8                       1                       # What write queue length does an incoming req see
system.mem_ctrls.wrQLenPdf::9                       1                       # What write queue length does an incoming req see
system.mem_ctrls.wrQLenPdf::10                      1                       # What write queue length does an incoming req see
system.mem_ctrls.wrQLenPdf::11                      1                       # What write queue length does an incoming req see
system.mem_ctrls.wrQLenPdf::12                      1                       # What write queue length does an incoming req see
system.mem_ctrls.wrQLenPdf::13                      1                       # What write queue length does an incoming req see
system.mem_ctrls.wrQLenPdf::14                      1                       # What write queue length does an incoming req see
system.mem_ctrls.wrQLenPdf::15                      1                       # What write queue length does an incoming req see
system.mem_ctrls.wrQLenPdf::16                      1                       # What write queue length does an incoming req see
system.mem_ctrls.wrQLenPdf::17                      7                       # What write queue length does an incoming req see
system.mem_ctrls.wrQLenPdf::18                      8                       # What write queue length does an incoming req see
system.mem_ctrls.wrQLenPdf::19                      8                       # What write queue length does an incoming req see
system.mem_ctrls.wrQLenPdf::20                      8                       # What write queue length does an incoming req see
system.mem_ctrls.wrQLenPdf::21                      8                       # What write queue length does an incoming req see
system.mem_ctrls.wrQLenPdf::22                      7                       # What write queue length does an incoming req see
system.mem_ctrls.wrQLenPdf::23                      7                       # What write queue length does an incoming req see
system.mem_ctrls.wrQLenPdf::24                      7                       # What write queue length does an incoming req see
system.mem_ctrls.wrQLenPdf::25                      8                       # What write queue length does an incoming req see
system.mem_ctrls.wrQLenPdf::26                      7                       # What write queue length does an incoming req see
system.mem_ctrls.wrQLenPdf::27                      7                       # What write queue length does an incoming req see
system.mem_ctrls.wrQLenPdf::28                      7                       # What write queue length does an incoming req see
system.mem_ctrls.wrQLenPdf::29                      7                       # What write queue length does an incoming req see
system.mem_ctrls.wrQLenPdf::30                      7                       # What write queue length does an incoming req see
system.mem_ctrls.wrQLenPdf::31                      7                       # What write queue length does an incoming req see
system.mem_ctrls.wrQLenPdf::32                      7                       # What write queue length does an incoming req see
system.mem_ctrls.wrQLenPdf::33                      0                       # What write queue length does an incoming req see
system.mem_ctrls.wrQLenPdf::34                      0                       # What write queue length does an incoming req see
system.mem_ctrls.wrQLenPdf::35                      0                       # What write queue length does an incoming req see
system.mem_ctrls.wrQLenPdf::36                      0                       # What write queue length does an incoming req see
system.mem_ctrls.wrQLenPdf::37                      0                       # What write queue length does an incoming req see
system.mem_ctrls.wrQLenPdf::38                      0                       # What write queue length does an incoming req see
system.mem_ctrls.wrQLenPdf::39                      0                       # What write queue length does an incoming req see
system.mem_ctrls.wrQLenPdf::40                      0                       # What write queue length does an incoming req see
system.mem_ctrls.wrQLenPdf::41                      0                       # What write queue length does an incoming req see
system.mem_ctrls.wrQLenPdf::42                      0                       # What write queue length does an incoming req see
system.mem_ctrls.wrQLenPdf::43                      0                       # What write queue length does an incoming req see
system.mem_ctrls.wrQLenPdf::44                      0                       # What write queue length does an incoming req see
system.mem_ctrls.wrQLenPdf::45                      0                       # What write queue length does an incoming req see
system.mem_ctrls.wrQLenPdf::46                      0                       # What write queue length does an incoming req see
system.mem_ctrls.wrQLenPdf::47                      0                       # What write queue length does an incoming req see
system.mem_ctrls.wrQLenPdf::48                      0                       # What write queue length does an incoming req see
system.mem_ctrls.wrQLenPdf::49                      0                       # What write queue length does an incoming req see
system.mem_ctrls.wrQLenPdf::50                      0                       # What write queue length does an incoming req see
system.mem_ctrls.wrQLenPdf::51                      0                       # What write queue length does an incoming req see
system.mem_ctrls.wrQLenPdf::52                      0                       # What write queue length does an incoming req see
system.mem_ctrls.wrQLenPdf::53                      0                       # What write queue length does an incoming req see
system.mem_ctrls.wrQLenPdf::54                      0                       # What write queue length does an incoming req see
system.mem_ctrls.wrQLenPdf::55                      0                       # What write queue length does an incoming req see
system.mem_ctrls.wrQLenPdf::56                      0                       # What write queue length does an incoming req see
system.mem_ctrls.wrQLenPdf::57                      0                       # What write queue length does an incoming req see
system.mem_ctrls.wrQLenPdf::58                      0                       # What write queue length does an incoming req see
system.mem_ctrls.wrQLenPdf::59                      0                       # What write queue length does an incoming req see
system.mem_ctrls.wrQLenPdf::60                      0                       # What write queue length does an incoming req see
system.mem_ctrls.wrQLenPdf::61                      0                       # What write queue length does an incoming req see
system.mem_ctrls.wrQLenPdf::62                      0                       # What write queue length does an incoming req see
system.mem_ctrls.wrQLenPdf::63                      0                       # What write queue length does an incoming req see
system.mem_ctrls.bytesPerActivate::samples          618                       # Bytes accessed per row activation
system.mem_ctrls.bytesPerActivate::mean    276.815534                       # Bytes accessed per row activation
system.mem_ctrls.bytesPerActivate::gmean   181.789543                       # Bytes accessed per row activation
system.mem_ctrls.bytesPerActivate::stdev   271.328770                       # Bytes accessed per row activation
system.mem_ctrls.bytesPerActivate::0-127          195     31.55%     31.55% # Bytes accessed per row activation
system.mem_ctrls.bytesPerActivate::128-255          173     27.99%     59.55% # Bytes accessed per row activation
system.mem_ctrls.bytesPerActivate::256-383           97     15.70%     75.24% # Bytes accessed per row activation
system.mem_ctrls.bytesPerActivate::384-511           46      7.44%     82.69% # Bytes accessed per row activation
system.mem_ctrls.bytesPerActivate::512-639           31      5.02%     87.70% # Bytes accessed per row activation
system.mem_ctrls.bytesPerActivate::640-767           17      2.75%     90.45% # Bytes accessed per row activation
system.mem_ctrls.bytesPerActivate::768-895           13      2.10%     92.56% # Bytes accessed per row activation
system.mem_ctrls.bytesPerActivate::896-1023            9      1.46%     94.01% # Bytes accessed per row activation
system.mem_ctrls.bytesPerActivate::1024-1151           37      5.99%    100.00% # Bytes accessed per row activation
system.mem_ctrls.bytesPerActivate::total          618                       # Bytes accessed per row activation
system.mem_ctrls.rdPerTurnAround::samples            7                       # Reads before turning the bus around for writes
system.mem_ctrls.rdPerTurnAround::mean     365.857143                       # Reads before turning the bus around for writes
system.mem_ctrls.rdPerTurnAround::gmean    211.242353                       # Reads before turning the bus around for writes
system.mem_ctrls.rdPerTurnAround::stdev    549.601197                       # Reads before turning the bus around for writes
system.mem_ctrls.rdPerTurnAround::64-127            2     28.57%     28.57% # Reads before turning the bus around for writes
system.mem_ctrls.rdPerTurnAround::128-191            2     28.57%     57.14% # Reads before turning the bus around for writes
system.mem_ctrls.rdPerTurnAround::192-255            2     28.57%     85.71% # Reads before turning the bus around for writes
system.mem_ctrls.rdPerTurnAround::1600-1663            1     14.29%    100.00% # Reads before turning the bus around for writes
system.mem_ctrls.rdPerTurnAround::total             7                       # Reads before turning the bus around for writes
system.mem_ctrls.wrPerTurnAround::samples            7                       # Writes before turning the bus around for reads
system.mem_ctrls.wrPerTurnAround::mean             16                       # Writes before turning the bus around for reads
system.mem_ctrls.wrPerTurnAround::gmean     16.000000                       # Writes before turning the bus around for reads
system.mem_ctrls.wrPerTurnAround::16                7    100.00%    100.00% # Writes before turning the bus around for reads
system.mem_ctrls.wrPerTurnAround::total             7                       # Writes before turning the bus around for reads
system.mem_ctrls.totQLat                     28808000                       # Total ticks spent queuing
system.mem_ctrls.totMemAccLat                77539250                       # Total ticks spent from burst creation until serviced by the DRAM
system.mem_ctrls.totBusLat                   12995000                       # Total ticks spent in databus transfers
system.mem_ctrls.avgQLat                     11084.26                       # Average queueing delay per DRAM burst
system.mem_ctrls.avgBusLat                    5000.00                       # Average bus latency per DRAM burst
system.mem_ctrls.avgMemAccLat                29834.26                       # Average memory access latency per DRAM burst
system.mem_ctrls.avgRdBW                       265.15                       # Average DRAM read bandwidth in MiByte/s
system.mem_ctrls.avgWrBW                        11.43                       # Average achieved write bandwidth in MiByte/s
system.mem_ctrls.avgRdBWSys                    348.10                       # Average system read bandwidth in MiByte/s
system.mem_ctrls.avgWrBWSys                     71.21                       # Average system write bandwidth in MiByte/s
system.mem_ctrls.peakBW                      12800.00                       # Theoretical peak bandwidth in MiByte/s
system.mem_ctrls.busUtil                         2.16                       # Data bus utilization in percentage
system.mem_ctrls.busUtilRead                     2.07                       # Data bus utilization in percentage for reads
system.mem_ctrls.busUtilWrite                    0.09                       # Data bus utilization in percentage for writes
system.mem_ctrls.avgRdQLen                       1.31                       # Average read queue length when enqueuing
system.mem_ctrls.avgWrQLen                      29.80                       # Average write queue length when enqueuing
system.mem_ctrls.readRowHits                     1974                       # Number of row buffer hits during reads
system.mem_ctrls.writeRowHits                     109                       # Number of row buffer hits during writes
system.mem_ctrls.readRowHitRate                 75.95                       # Row buffer hit rate for reads
system.mem_ctrls.writeRowHitRate                81.34                       # Row buffer hit rate for writes
system.mem_ctrls.avgGap                     152629.56                       # Average gap between requests
system.mem_ctrls.pageHitRate                    76.22                       # Row buffer hit rate, read and write combined
system.mem_ctrls_0.actEnergy                  3265920                       # Energy for activate commands per rank (pJ)
system.mem_ctrls_0.preEnergy                  1782000                       # Energy for precharge commands per rank (pJ)
system.mem_ctrls_0.readEnergy                12792000                       # Energy for read commands per rank (pJ)
system.mem_ctrls_0.writeEnergy                 615600                       # Energy for write commands per rank (pJ)
system.mem_ctrls_0.refreshEnergy             40684800                       # Energy for refresh commands per rank (pJ)
system.mem_ctrls_0.actBackEnergy            100088010                       # Energy for active background per rank (pJ)
system.mem_ctrls_0.preBackEnergy            286099500                       # Energy for precharge background per rank (pJ)
system.mem_ctrls_0.totalEnergy              445327830                       # Total energy per rank (pJ)
system.mem_ctrls_0.averagePower            714.628394                       # Core power per rank (mW)
system.mem_ctrls_0.memoryStateTime::IDLE    475451250                       # Time in different power states
system.mem_ctrls_0.memoryStateTime::REF      20800000                       # Time in different power states
system.mem_ctrls_0.memoryStateTime::PRE_PDN            0                       # Time in different power states
system.mem_ctrls_0.memoryStateTime::ACT     126922500                       # Time in different power states
system.mem_ctrls_0.memoryStateTime::ACT_PDN            0                       # Time in different power states
system.mem_ctrls_1.actEnergy                  1338120                       # Energy for activate commands per rank (pJ)
system.mem_ctrls_1.preEnergy                   730125                       # Energy for precharge commands per rank (pJ)
system.mem_ctrls_1.readEnergy                 6622200                       # Energy for read commands per rank (pJ)
system.mem_ctrls_1.writeEnergy                   6480                       # Energy for write commands per rank (pJ)
system.mem_ctrls_1.refreshEnergy             40684800                       # Energy for refresh commands per rank (pJ)
system.mem_ctrls_1.actBackEnergy             99335610                       # Energy for active background per rank (pJ)
system.mem_ctrls_1.preBackEnergy            286759500                       # Energy for precharge background per rank (pJ)
system.mem_ctrls_1.totalEnergy              435476835                       # Total energy per rank (pJ)
system.mem_ctrls_1.averagePower            698.820263                       # Core power per rank (mW)
system.mem_ctrls_1.memoryStateTime::IDLE    476678750                       # Time in different power states
system.mem_ctrls_1.memoryStateTime::REF      20800000                       # Time in different power states
system.mem_ctrls_1.memoryStateTime::PRE_PDN            0                       # Time in different power states
system.mem_ctrls_1.memoryStateTime::ACT     125837250                       # Time in different power states
system.mem_ctrls_1.memoryStateTime::ACT_PDN            0                       # Time in different power states
system.cpu.branchPred.lookups                  271012                       # Number of BP lookups
system.cpu.branchPred.condPredicted            223107                       # Number of conditional branches predicted
system.cpu.branchPred.condIncorrect              8265                       # Number of conditional branches incorrect
system.cpu.branchPred.BTBLookups               222758                       # Number of BTB lookups
system.cpu.branchPred.BTBHits                  221659                       # Number of BTB hits
system.cpu.branchPred.BTBCorrect                    0                       # Number of correct BTB predictions (this stat may not work properly.
system.cpu.branchPred.BTBHitPct             99.506639                       # BTB Hit Percentage
system.cpu.branchPred.usedRAS                   22769                       # Number of times the RAS was used to get a target.
system.cpu.branchPred.RASInCorrect                104                       # Number of incorrect RAS predictions.
system.cpu_voltage_domain.voltage                   1                       # Voltage in Volts
system.cpu_clk_domain.clock                       500                       # Clock period in ticks
system.cpu.dstage2_mmu.stage2_tlb.walker.walks            0                       # Table walker walks requested
system.cpu.dstage2_mmu.stage2_tlb.walker.walkRequestOrigin_Requested::Data            0                       # Table walker requests started/completed, data/inst
system.cpu.dstage2_mmu.stage2_tlb.walker.walkRequestOrigin_Requested::Inst            0                       # Table walker requests started/completed, data/inst
system.cpu.dstage2_mmu.stage2_tlb.walker.walkRequestOrigin_Requested::total            0                       # Table walker requests started/completed, data/inst
system.cpu.dstage2_mmu.stage2_tlb.walker.walkRequestOrigin_Completed::Data            0                       # Table walker requests started/completed, data/inst
system.cpu.dstage2_mmu.stage2_tlb.walker.walkRequestOrigin_Completed::Inst            0                       # Table walker requests started/completed, data/inst
system.cpu.dstage2_mmu.stage2_tlb.walker.walkRequestOrigin_Completed::total            0                       # Table walker requests started/completed, data/inst
system.cpu.dstage2_mmu.stage2_tlb.walker.walkRequestOrigin::total            0                       # Table walker requests started/completed, data/inst
system.cpu.dstage2_mmu.stage2_tlb.inst_hits            0                       # ITB inst hits
system.cpu.dstage2_mmu.stage2_tlb.inst_misses            0                       # ITB inst misses
system.cpu.dstage2_mmu.stage2_tlb.read_hits            0                       # DTB read hits
system.cpu.dstage2_mmu.stage2_tlb.read_misses            0                       # DTB read misses
system.cpu.dstage2_mmu.stage2_tlb.write_hits            0                       # DTB write hits
system.cpu.dstage2_mmu.stage2_tlb.write_misses            0                       # DTB write misses
system.cpu.dstage2_mmu.stage2_tlb.flush_tlb            0                       # Number of times complete TLB was flushed
system.cpu.dstage2_mmu.stage2_tlb.flush_tlb_mva            0                       # Number of times TLB was flushed by MVA
system.cpu.dstage2_mmu.stage2_tlb.flush_tlb_mva_asid            0                       # Number of times TLB was flushed by MVA & ASID
system.cpu.dstage2_mmu.stage2_tlb.flush_tlb_asid            0                       # Number of times TLB was flushed by ASID
system.cpu.dstage2_mmu.stage2_tlb.flush_entries            0                       # Number of entries that have been flushed from TLB
system.cpu.dstage2_mmu.stage2_tlb.align_faults            0                       # Number of TLB faults due to alignment restrictions
system.cpu.dstage2_mmu.stage2_tlb.prefetch_faults            0                       # Number of TLB faults due to prefetch
system.cpu.dstage2_mmu.stage2_tlb.domain_faults            0                       # Number of TLB faults due to domain restrictions
system.cpu.dstage2_mmu.stage2_tlb.perms_faults            0                       # Number of TLB faults due to permissions restrictions
system.cpu.dstage2_mmu.stage2_tlb.read_accesses            0                       # DTB read accesses
system.cpu.dstage2_mmu.stage2_tlb.write_accesses            0                       # DTB write accesses
system.cpu.dstage2_mmu.stage2_tlb.inst_accesses            0                       # ITB inst accesses
system.cpu.dstage2_mmu.stage2_tlb.hits              0                       # DTB hits
system.cpu.dstage2_mmu.stage2_tlb.misses            0                       # DTB misses
system.cpu.dstage2_mmu.stage2_tlb.accesses            0                       # DTB accesses
system.cpu.dtb.walker.walks                         0                       # Table walker walks requested
system.cpu.dtb.walker.walkRequestOrigin_Requested::Data            0                       # Table walker requests started/completed, data/inst
system.cpu.dtb.walker.walkRequestOrigin_Requested::Inst            0                       # Table walker requests started/completed, data/inst
system.cpu.dtb.walker.walkRequestOrigin_Requested::total            0                       # Table walker requests started/completed, data/inst
system.cpu.dtb.walker.walkRequestOrigin_Completed::Data            0                       # Table walker requests started/completed, data/inst
system.cpu.dtb.walker.walkRequestOrigin_Completed::Inst            0                       # Table walker requests started/completed, data/inst
system.cpu.dtb.walker.walkRequestOrigin_Completed::total            0                       # Table walker requests started/completed, data/inst
system.cpu.dtb.walker.walkRequestOrigin::total            0                       # Table walker requests started/completed, data/inst
system.cpu.dtb.inst_hits                            0                       # ITB inst hits
system.cpu.dtb.inst_misses                          0                       # ITB inst misses
system.cpu.dtb.read_hits                            0                       # DTB read hits
system.cpu.dtb.read_misses                          0                       # DTB read misses
system.cpu.dtb.write_hits                           0                       # DTB write hits
system.cpu.dtb.write_misses                         0                       # DTB write misses
system.cpu.dtb.flush_tlb                            0                       # Number of times complete TLB was flushed
system.cpu.dtb.flush_tlb_mva                        0                       # Number of times TLB was flushed by MVA
system.cpu.dtb.flush_tlb_mva_asid                   0                       # Number of times TLB was flushed by MVA & ASID
system.cpu.dtb.flush_tlb_asid                       0                       # Number of times TLB was flushed by ASID
system.cpu.dtb.flush_entries                        0                       # Number of entries that have been flushed from TLB
system.cpu.dtb.align_faults                         0                       # Number of TLB faults due to alignment restrictions
system.cpu.dtb.prefetch_faults                      0                       # Number of TLB faults due to prefetch
system.cpu.dtb.domain_faults                        0                       # Number of TLB faults due to domain restrictions
system.cpu.dtb.perms_faults                         0                       # Number of TLB faults due to permissions restrictions
system.cpu.dtb.read_accesses                        0                       # DTB read accesses
system.cpu.dtb.write_accesses                       0                       # DTB write accesses
system.cpu.dtb.inst_accesses                        0                       # ITB inst accesses
system.cpu.dtb.hits                                 0                       # DTB hits
system.cpu.dtb.misses                               0                       # DTB misses
system.cpu.dtb.accesses                             0                       # DTB accesses
system.cpu.istage2_mmu.stage2_tlb.walker.walks            0                       # Table walker walks requested
system.cpu.istage2_mmu.stage2_tlb.walker.walkRequestOrigin_Requested::Data            0                       # Table walker requests started/completed, data/inst
system.cpu.istage2_mmu.stage2_tlb.walker.walkRequestOrigin_Requested::Inst            0                       # Table walker requests started/completed, data/inst
system.cpu.istage2_mmu.stage2_tlb.walker.walkRequestOrigin_Requested::total            0                       # Table walker requests started/completed, data/inst
system.cpu.istage2_mmu.stage2_tlb.walker.walkRequestOrigin_Completed::Data            0                       # Table walker requests started/completed, data/inst
system.cpu.istage2_mmu.stage2_tlb.walker.walkRequestOrigin_Completed::Inst            0                       # Table walker requests started/completed, data/inst
system.cpu.istage2_mmu.stage2_tlb.walker.walkRequestOrigin_Completed::total            0                       # Table walker requests started/completed, data/inst
system.cpu.istage2_mmu.stage2_tlb.walker.walkRequestOrigin::total            0                       # Table walker requests started/completed, data/inst
system.cpu.istage2_mmu.stage2_tlb.inst_hits            0                       # ITB inst hits
system.cpu.istage2_mmu.stage2_tlb.inst_misses            0                       # ITB inst misses
system.cpu.istage2_mmu.stage2_tlb.read_hits            0                       # DTB read hits
system.cpu.istage2_mmu.stage2_tlb.read_misses            0                       # DTB read misses
system.cpu.istage2_mmu.stage2_tlb.write_hits            0                       # DTB write hits
system.cpu.istage2_mmu.stage2_tlb.write_misses            0                       # DTB write misses
system.cpu.istage2_mmu.stage2_tlb.flush_tlb            0                       # Number of times complete TLB was flushed
system.cpu.istage2_mmu.stage2_tlb.flush_tlb_mva            0                       # Number of times TLB was flushed by MVA
system.cpu.istage2_mmu.stage2_tlb.flush_tlb_mva_asid            0                       # Number of times TLB was flushed by MVA & ASID
system.cpu.istage2_mmu.stage2_tlb.flush_tlb_asid            0                       # Number of times TLB was flushed by ASID
system.cpu.istage2_mmu.stage2_tlb.flush_entries            0                       # Number of entries that have been flushed from TLB
system.cpu.istage2_mmu.stage2_tlb.align_faults            0                       # Number of TLB faults due to alignment restrictions
system.cpu.istage2_mmu.stage2_tlb.prefetch_faults            0                       # Number of TLB faults due to prefetch
system.cpu.istage2_mmu.stage2_tlb.domain_faults            0                       # Number of TLB faults due to domain restrictions
system.cpu.istage2_mmu.stage2_tlb.perms_faults            0                       # Number of TLB faults due to permissions restrictions
system.cpu.istage2_mmu.stage2_tlb.read_accesses            0                       # DTB read accesses
system.cpu.istage2_mmu.stage2_tlb.write_accesses            0                       # DTB write accesses
system.cpu.istage2_mmu.stage2_tlb.inst_accesses            0                       # ITB inst accesses
system.cpu.istage2_mmu.stage2_tlb.hits              0                       # DTB hits
system.cpu.istage2_mmu.stage2_tlb.misses            0                       # DTB misses
system.cpu.istage2_mmu.stage2_tlb.accesses            0                       # DTB accesses
system.cpu.itb.walker.walks                         0                       # Table walker walks requested
system.cpu.itb.walker.walkRequestOrigin_Requested::Data            0                       # Table walker requests started/completed, data/inst
system.cpu.itb.walker.walkRequestOrigin_Requested::Inst            0                       # Table walker requests started/completed, data/inst
system.cpu.itb.walker.walkRequestOrigin_Requested::total            0                       # Table walker requests started/completed, data/inst
system.cpu.itb.walker.walkRequestOrigin_Completed::Data            0                       # Table walker requests started/completed, data/inst
system.cpu.itb.walker.walkRequestOrigin_Completed::Inst            0                       # Table walker requests started/completed, data/inst
system.cpu.itb.walker.walkRequestOrigin_Completed::total            0                       # Table walker requests started/completed, data/inst
system.cpu.itb.walker.walkRequestOrigin::total            0                       # Table walker requests started/completed, data/inst
system.cpu.itb.inst_hits                            0                       # ITB inst hits
system.cpu.itb.inst_misses                          0                       # ITB inst misses
system.cpu.itb.read_hits                            0                       # DTB read hits
system.cpu.itb.read_misses                          0                       # DTB read misses
system.cpu.itb.write_hits                           0                       # DTB write hits
system.cpu.itb.write_misses                         0                       # DTB write misses
system.cpu.itb.flush_tlb                            0                       # Number of times complete TLB was flushed
system.cpu.itb.flush_tlb_mva                        0                       # Number of times TLB was flushed by MVA
system.cpu.itb.flush_tlb_mva_asid                   0                       # Number of times TLB was flushed by MVA & ASID
system.cpu.itb.flush_tlb_asid                       0                       # Number of times TLB was flushed by ASID
system.cpu.itb.flush_entries                        0                       # Number of entries that have been flushed from TLB
system.cpu.itb.align_faults                         0                       # Number of TLB faults due to alignment restrictions
system.cpu.itb.prefetch_faults                      0                       # Number of TLB faults due to prefetch
system.cpu.itb.domain_faults                        0                       # Number of TLB faults due to domain restrictions
system.cpu.itb.perms_faults                         0                       # Number of TLB faults due to permissions restrictions
system.cpu.itb.read_accesses                        0                       # DTB read accesses
system.cpu.itb.write_accesses                       0                       # DTB write accesses
system.cpu.itb.inst_accesses                        0                       # ITB inst accesses
system.cpu.itb.hits                                 0                       # DTB hits
system.cpu.itb.misses                               0                       # DTB misses
system.cpu.itb.accesses                             0                       # DTB accesses
system.cpu.workload.num_syscalls                   36                       # Number of system calls
system.cpu.numCycles                          1254634                       # number of cpu cycles simulated
system.cpu.numWorkItemsStarted                      0                       # number of work items this cpu started
system.cpu.numWorkItemsCompleted                    0                       # number of work items this cpu completed
system.cpu.fetch.icacheStallCycles              42865                       # Number of cycles fetch is stalled on an Icache miss
system.cpu.fetch.Insts                        1954998                       # Number of instructions fetch has processed
system.cpu.fetch.Branches                      271012                       # Number of branches that fetch encountered
system.cpu.fetch.predictedBranches             244428                       # Number of branches that fetch has predicted taken
system.cpu.fetch.Cycles                       1114736                       # Number of cycles fetch has run and was not squashing or blocked
system.cpu.fetch.SquashCycles                   16685                       # Number of cycles fetch has spent squashing
system.cpu.fetch.MiscStallCycles                  455                       # Number of cycles fetch has spent waiting on interrupts, or bad addresses, or out of MSHRs
system.cpu.fetch.PendingTrapStallCycles           263                       # Number of stall cycles due to pending traps
system.cpu.fetch.IcacheWaitRetryStallCycles         1071                       # Number of stall cycles due to full MSHR
system.cpu.fetch.CacheLines                    757081                       # Number of cache lines fetched
system.cpu.fetch.IcacheSquashes                   648                       # Number of outstanding Icache misses that were squashed
system.cpu.fetch.rateDist::samples            1167732                       # Number of instructions fetched each cycle (Total)
system.cpu.fetch.rateDist::mean              1.718215                       # Number of instructions fetched each cycle (Total)
system.cpu.fetch.rateDist::stdev             1.037680                       # Number of instructions fetched each cycle (Total)
system.cpu.fetch.rateDist::underflows               0      0.00%      0.00% # Number of instructions fetched each cycle (Total)
system.cpu.fetch.rateDist::0                   100564      8.61%      8.61% # Number of instructions fetched each cycle (Total)
system.cpu.fetch.rateDist::1                   537888     46.06%     54.67% # Number of instructions fetched each cycle (Total)
system.cpu.fetch.rateDist::2                   119313     10.22%     64.89% # Number of instructions fetched each cycle (Total)
system.cpu.fetch.rateDist::3                   409967     35.11%    100.00% # Number of instructions fetched each cycle (Total)
system.cpu.fetch.rateDist::overflows                0      0.00%    100.00% # Number of instructions fetched each cycle (Total)
system.cpu.fetch.rateDist::min_value                0                       # Number of instructions fetched each cycle (Total)
system.cpu.fetch.rateDist::max_value                3                       # Number of instructions fetched each cycle (Total)
system.cpu.fetch.rateDist::total              1167732                       # Number of instructions fetched each cycle (Total)
system.cpu.fetch.branchRate                  0.216009                       # Number of branch fetches per cycle
system.cpu.fetch.rate                        1.558222                       # Number of inst fetches per cycle
system.cpu.decode.IdleCycles                    44628                       # Number of cycles decode is idle
system.cpu.decode.BlockedCycles                 65291                       # Number of cycles decode is blocked
system.cpu.decode.RunCycles                   1047748                       # Number of cycles decode is running
system.cpu.decode.UnblockCycles                  2155                       # Number of cycles decode is unblocking
system.cpu.decode.SquashCycles                   7910                       # Number of cycles decode is squashing
system.cpu.decode.BranchResolved                 2475                       # Number of times decode resolved a branch
system.cpu.decode.BranchMispred                   455                       # Number of times decode detected a branch misprediction
system.cpu.decode.DecodedInsts                1939924                       # Number of instructions handled by decode
system.cpu.decode.SquashedInsts                 30971                       # Number of squashed instructions handled by decode
system.cpu.rename.SquashCycles                   7910                       # Number of cycles rename is squashing
system.cpu.rename.IdleCycles                    68634                       # Number of cycles rename is idle
system.cpu.rename.BlockCycles                   43645                       # Number of cycles rename is blocking
system.cpu.rename.serializeStallCycles          12872                       # count of cycles rename stalled for serializing inst
system.cpu.rename.RunCycles                   1025593                       # Number of cycles rename is running
system.cpu.rename.UnblockCycles                  9078                       # Number of cycles rename is unblocking
system.cpu.rename.RenamedInsts                1911975                       # Number of instructions processed by rename
system.cpu.rename.SquashedInsts                 11624                       # Number of squashed instructions processed by rename
system.cpu.rename.ROBFullEvents                  3122                       # Number of times rename has blocked due to ROB full
system.cpu.rename.IQFullEvents                    422                       # Number of times rename has blocked due to IQ full
system.cpu.rename.LQFullEvents                     86                       # Number of times rename has blocked due to LQ full
system.cpu.rename.SQFullEvents                   6741                       # Number of times rename has blocked due to SQ full
system.cpu.rename.RenamedOperands             2478845                       # Number of destination operands rename has renamed
system.cpu.rename.RenameLookups               8096370                       # Number of register rename lookups that rename has made
system.cpu.rename.int_rename_lookups          2188782                       # Number of integer rename lookups
system.cpu.rename.fp_rename_lookups                16                       # Number of floating rename lookups
system.cpu.rename.CommittedMaps               2376364                       # Number of HB maps that are committed
system.cpu.rename.UndoneMaps                   102481                       # Number of HB maps that are undone due to squashing
system.cpu.rename.serializingInsts                129                       # count of serializing insts renamed
system.cpu.rename.tempSerializingInsts            138                       # count of temporary serializing insts renamed
system.cpu.rename.skidInsts                      5811                       # count of insts added to the skid buffer
system.cpu.memDep0.insertedLoads               139350                       # Number of loads inserted to the mem dependence unit.
system.cpu.memDep0.insertedStores               27414                       # Number of stores inserted to the mem dependence unit.
system.cpu.memDep0.conflictingLoads              3137                       # Number of conflicting loads.
system.cpu.memDep0.conflictingStores              674                       # Number of conflicting stores.
system.cpu.iq.iqInstsAdded                    1903112                       # Number of instructions added to the IQ (excludes non-spec)
system.cpu.iq.iqNonSpecInstsAdded                 172                       # Number of non-speculative instructions added to the IQ
system.cpu.iq.iqInstsIssued                   1880758                       # Number of instructions issued
system.cpu.iq.iqSquashedInstsIssued              3969                       # Number of squashed instructions issued
system.cpu.iq.iqSquashedInstsExamined           67576                       # Number of squashed instructions iterated over during squash; mainly for profiling
system.cpu.iq.iqSquashedOperandsExamined       113879                       # Number of squashed operands that are examined and possibly removed from graph
system.cpu.iq.iqSquashedNonSpecRemoved             35                       # Number of squashed non-spec instructions that were removed
system.cpu.iq.issued_per_cycle::samples       1167732                       # Number of insts issued each cycle
system.cpu.iq.issued_per_cycle::mean         1.610608                       # Number of insts issued each cycle
system.cpu.iq.issued_per_cycle::stdev        0.759518                       # Number of insts issued each cycle
system.cpu.iq.issued_per_cycle::underflows            0      0.00%      0.00% # Number of insts issued each cycle
system.cpu.iq.issued_per_cycle::0              148796     12.74%     12.74% # Number of insts issued each cycle
system.cpu.iq.issued_per_cycle::1              205831     17.63%     30.37% # Number of insts issued each cycle
system.cpu.iq.issued_per_cycle::2              764865     65.50%     95.87% # Number of insts issued each cycle
system.cpu.iq.issued_per_cycle::3               47763      4.09%     99.96% # Number of insts issued each cycle
system.cpu.iq.issued_per_cycle::4                 477      0.04%    100.00% # Number of insts issued each cycle
system.cpu.iq.issued_per_cycle::5                   0      0.00%    100.00% # Number of insts issued each cycle
system.cpu.iq.issued_per_cycle::6                   0      0.00%    100.00% # Number of insts issued each cycle
system.cpu.iq.issued_per_cycle::7                   0      0.00%    100.00% # Number of insts issued each cycle
system.cpu.iq.issued_per_cycle::8                   0      0.00%    100.00% # Number of insts issued each cycle
system.cpu.iq.issued_per_cycle::overflows            0      0.00%    100.00% # Number of insts issued each cycle
system.cpu.iq.issued_per_cycle::min_value            0                       # Number of insts issued each cycle
system.cpu.iq.issued_per_cycle::max_value            4                       # Number of insts issued each cycle
system.cpu.iq.issued_per_cycle::total         1167732                       # Number of insts issued each cycle
system.cpu.iq.fu_full::No_OpClass                   0      0.00%      0.00% # attempts to use FU when none available
system.cpu.iq.fu_full::IntAlu                  206898     72.40%     72.40% # attempts to use FU when none available
system.cpu.iq.fu_full::IntMult                      0      0.00%     72.40% # attempts to use FU when none available
system.cpu.iq.fu_full::IntDiv                       0      0.00%     72.40% # attempts to use FU when none available
system.cpu.iq.fu_full::FloatAdd                     0      0.00%     72.40% # attempts to use FU when none available
system.cpu.iq.fu_full::FloatCmp                     0      0.00%     72.40% # attempts to use FU when none available
system.cpu.iq.fu_full::FloatCvt                     0      0.00%     72.40% # attempts to use FU when none available
system.cpu.iq.fu_full::FloatMult                    0      0.00%     72.40% # attempts to use FU when none available
system.cpu.iq.fu_full::FloatDiv                     0      0.00%     72.40% # attempts to use FU when none available
system.cpu.iq.fu_full::FloatSqrt                    0      0.00%     72.40% # attempts to use FU when none available
system.cpu.iq.fu_full::SimdAdd                      0      0.00%     72.40% # attempts to use FU when none available
system.cpu.iq.fu_full::SimdAddAcc                   0      0.00%     72.40% # attempts to use FU when none available
system.cpu.iq.fu_full::SimdAlu                      0      0.00%     72.40% # attempts to use FU when none available
system.cpu.iq.fu_full::SimdCmp                      0      0.00%     72.40% # attempts to use FU when none available
system.cpu.iq.fu_full::SimdCvt                      0      0.00%     72.40% # attempts to use FU when none available
system.cpu.iq.fu_full::SimdMisc                     0      0.00%     72.40% # attempts to use FU when none available
system.cpu.iq.fu_full::SimdMult                     0      0.00%     72.40% # attempts to use FU when none available
system.cpu.iq.fu_full::SimdMultAcc                  0      0.00%     72.40% # attempts to use FU when none available
system.cpu.iq.fu_full::SimdShift                    0      0.00%     72.40% # attempts to use FU when none available
system.cpu.iq.fu_full::SimdShiftAcc                 0      0.00%     72.40% # attempts to use FU when none available
system.cpu.iq.fu_full::SimdSqrt                     0      0.00%     72.40% # attempts to use FU when none available
system.cpu.iq.fu_full::SimdFloatAdd                 0      0.00%     72.40% # attempts to use FU when none available
system.cpu.iq.fu_full::SimdFloatAlu                 0      0.00%     72.40% # attempts to use FU when none available
system.cpu.iq.fu_full::SimdFloatCmp                 0      0.00%     72.40% # attempts to use FU when none available
system.cpu.iq.fu_full::SimdFloatCvt                 0      0.00%     72.40% # attempts to use FU when none available
system.cpu.iq.fu_full::SimdFloatDiv                 0      0.00%     72.40% # attempts to use FU when none available
system.cpu.iq.fu_full::SimdFloatMisc                0      0.00%     72.40% # attempts to use FU when none available
system.cpu.iq.fu_full::SimdFloatMult                0      0.00%     72.40% # attempts to use FU when none available
system.cpu.iq.fu_full::SimdFloatMultAcc             0      0.00%     72.40% # attempts to use FU when none available
system.cpu.iq.fu_full::SimdFloatSqrt                0      0.00%     72.40% # attempts to use FU when none available
system.cpu.iq.fu_full::MemRead                  69504     24.32%     96.72% # attempts to use FU when none available
system.cpu.iq.fu_full::MemWrite                  9381      3.28%    100.00% # attempts to use FU when none available
system.cpu.iq.fu_full::IprAccess                    0      0.00%    100.00% # attempts to use FU when none available
system.cpu.iq.fu_full::InstPrefetch                 0      0.00%    100.00% # attempts to use FU when none available
system.cpu.iq.FU_type_0::No_OpClass                 0      0.00%      0.00% # Type of FU issued
system.cpu.iq.FU_type_0::IntAlu               1715772     91.23%     91.23% # Type of FU issued
system.cpu.iq.FU_type_0::IntMult                  110      0.01%     91.23% # Type of FU issued
system.cpu.iq.FU_type_0::IntDiv                     0      0.00%     91.23% # Type of FU issued
system.cpu.iq.FU_type_0::FloatAdd                   0      0.00%     91.23% # Type of FU issued
system.cpu.iq.FU_type_0::FloatCmp                   0      0.00%     91.23% # Type of FU issued
system.cpu.iq.FU_type_0::FloatCvt                   0      0.00%     91.23% # Type of FU issued
system.cpu.iq.FU_type_0::FloatMult                  0      0.00%     91.23% # Type of FU issued
system.cpu.iq.FU_type_0::FloatDiv                   0      0.00%     91.23% # Type of FU issued
system.cpu.iq.FU_type_0::FloatSqrt                  0      0.00%     91.23% # Type of FU issued
system.cpu.iq.FU_type_0::SimdAdd                    0      0.00%     91.23% # Type of FU issued
system.cpu.iq.FU_type_0::SimdAddAcc                 0      0.00%     91.23% # Type of FU issued
system.cpu.iq.FU_type_0::SimdAlu                    0      0.00%     91.23% # Type of FU issued
system.cpu.iq.FU_type_0::SimdCmp                    0      0.00%     91.23% # Type of FU issued
system.cpu.iq.FU_type_0::SimdCvt                    0      0.00%     91.23% # Type of FU issued
system.cpu.iq.FU_type_0::SimdMisc                   0      0.00%     91.23% # Type of FU issued
system.cpu.iq.FU_type_0::SimdMult                   0      0.00%     91.23% # Type of FU issued
system.cpu.iq.FU_type_0::SimdMultAcc                0      0.00%     91.23% # Type of FU issued
system.cpu.iq.FU_type_0::SimdShift                  0      0.00%     91.23% # Type of FU issued
system.cpu.iq.FU_type_0::SimdShiftAcc               0      0.00%     91.23% # Type of FU issued
system.cpu.iq.FU_type_0::SimdSqrt                   0      0.00%     91.23% # Type of FU issued
system.cpu.iq.FU_type_0::SimdFloatAdd               0      0.00%     91.23% # Type of FU issued
system.cpu.iq.FU_type_0::SimdFloatAlu               0      0.00%     91.23% # Type of FU issued
system.cpu.iq.FU_type_0::SimdFloatCmp               0      0.00%     91.23% # Type of FU issued
system.cpu.iq.FU_type_0::SimdFloatCvt               0      0.00%     91.23% # Type of FU issued
system.cpu.iq.FU_type_0::SimdFloatDiv               0      0.00%     91.23% # Type of FU issued
system.cpu.iq.FU_type_0::SimdFloatMisc              7      0.00%     91.23% # Type of FU issued
system.cpu.iq.FU_type_0::SimdFloatMult              0      0.00%     91.23% # Type of FU issued
system.cpu.iq.FU_type_0::SimdFloatMultAcc            0      0.00%     91.23% # Type of FU issued
system.cpu.iq.FU_type_0::SimdFloatSqrt              0      0.00%     91.23% # Type of FU issued
system.cpu.iq.FU_type_0::MemRead               138533      7.37%     98.60% # Type of FU issued
system.cpu.iq.FU_type_0::MemWrite               26336      1.40%    100.00% # Type of FU issued
system.cpu.iq.FU_type_0::IprAccess                  0      0.00%    100.00% # Type of FU issued
system.cpu.iq.FU_type_0::InstPrefetch               0      0.00%    100.00% # Type of FU issued
system.cpu.iq.FU_type_0::total                1880758                       # Type of FU issued
system.cpu.iq.rate                           1.499049                       # Inst issue rate
system.cpu.iq.fu_busy_cnt                      285783                       # FU busy when requested
system.cpu.iq.fu_busy_rate                   0.151951                       # FU busy rate (busy events/executed inst)
system.cpu.iq.int_inst_queue_reads            5218956                       # Number of integer instruction queue reads
system.cpu.iq.int_inst_queue_writes           1970888                       # Number of integer instruction queue writes
system.cpu.iq.int_inst_queue_wakeup_accesses      1864955                       # Number of integer instruction queue wakeup accesses
system.cpu.iq.fp_inst_queue_reads                  44                       # Number of floating instruction queue reads
system.cpu.iq.fp_inst_queue_writes                 16                       # Number of floating instruction queue writes
system.cpu.iq.fp_inst_queue_wakeup_accesses           16                       # Number of floating instruction queue wakeup accesses
system.cpu.iq.int_alu_accesses                2166513                       # Number of integer alu accesses
system.cpu.iq.fp_alu_accesses                      28                       # Number of floating point alu accesses
system.cpu.iew.lsq.thread0.forwLoads             3237                       # Number of loads that had data forwarded from stores
system.cpu.iew.lsq.thread0.invAddrLoads             0                       # Number of loads ignored due to an invalid address
system.cpu.iew.lsq.thread0.squashedLoads         4114                       # Number of loads squashed
system.cpu.iew.lsq.thread0.ignoredResponses            3                       # Number of memory responses ignored because the instruction is squashed
system.cpu.iew.lsq.thread0.memOrderViolation           44                       # Number of memory ordering violations
system.cpu.iew.lsq.thread0.squashedStores         2424                       # Number of stores squashed
system.cpu.iew.lsq.thread0.invAddrSwpfs             0                       # Number of software prefetches ignored due to an invalid address
system.cpu.iew.lsq.thread0.blockedLoads             0                       # Number of blocked loads due to partial load-store forwarding
system.cpu.iew.lsq.thread0.rescheduledLoads          141                       # Number of loads that were rescheduled
system.cpu.iew.lsq.thread0.cacheBlocked           161                       # Number of times an access to memory failed due to the cache being blocked
system.cpu.iew.iewIdleCycles                        0                       # Number of cycles IEW is idle
system.cpu.iew.iewSquashCycles                   7910                       # Number of cycles IEW is squashing
system.cpu.iew.iewBlockCycles                    5225                       # Number of cycles IEW is blocking
system.cpu.iew.iewUnblockCycles                   953                       # Number of cycles IEW is unblocking
system.cpu.iew.iewDispatchedInsts             1903292                       # Number of instructions dispatched to IQ
system.cpu.iew.iewDispSquashedInsts                 0                       # Number of squashed instructions skipped by dispatch
system.cpu.iew.iewDispLoadInsts                139350                       # Number of dispatched load instructions
system.cpu.iew.iewDispStoreInsts                27414                       # Number of dispatched store instructions
system.cpu.iew.iewDispNonSpecInsts                121                       # Number of dispatched non-speculative instructions
system.cpu.iew.iewIQFullEvents                     73                       # Number of times the IQ has become full, causing a stall
system.cpu.iew.iewLSQFullEvents                   848                       # Number of times the LSQ has become full, causing a stall
system.cpu.iew.memOrderViolationEvents             44                       # Number of memory order violations
system.cpu.iew.predictedTakenIncorrect           6282                       # Number of branches that were predicted taken incorrectly
system.cpu.iew.predictedNotTakenIncorrect         1657                       # Number of branches that were predicted not taken incorrectly
system.cpu.iew.branchMispredicts                 7939                       # Number of branch mispredicts detected at execute
system.cpu.iew.iewExecutedInsts               1866152                       # Number of executed instructions
system.cpu.iew.iewExecLoadInsts                137576                       # Number of load instructions executed
system.cpu.iew.iewExecSquashedInsts             14606                       # Number of squashed instructions skipped in execute
system.cpu.iew.exec_swp                             0                       # number of swp insts executed
system.cpu.iew.exec_nop                             8                       # number of nop insts executed
system.cpu.iew.exec_refs                       163488                       # number of memory reference insts executed
system.cpu.iew.exec_branches                   248247                       # Number of branches executed
system.cpu.iew.exec_stores                      25912                       # Number of stores executed
system.cpu.iew.exec_rate                     1.487407                       # Inst execution rate
system.cpu.iew.wb_sent                        1865110                       # cumulative count of insts sent to commit
system.cpu.iew.wb_count                       1864971                       # cumulative count of insts written-back
system.cpu.iew.wb_producers                   1333361                       # num instructions producing a value
system.cpu.iew.wb_consumers                   2164482                       # num instructions consuming a value
system.cpu.iew.wb_penalized                         0                       # number of instrctions required to write to 'other' IQ
system.cpu.iew.wb_rate                       1.486466                       # insts written-back per cycle
system.cpu.iew.wb_fanout                     0.616019                       # average fanout of values written-back
system.cpu.iew.wb_penalized_rate                    0                       # fraction of instructions written-back that wrote to 'other' IQ
system.cpu.commit.commitSquashedInsts           46902                       # The number of squashed insts skipped by commit
system.cpu.commit.commitNonSpecStalls             137                       # The number of times commit has been forced to stall to communicate backwards
system.cpu.commit.branchMispredicts              7833                       # The number of times a branch was mispredicted
system.cpu.commit.committed_per_cycle::samples      1158477                       # Number of insts commited each cycle
system.cpu.commit.committed_per_cycle::mean     1.584587                       # Number of insts commited each cycle
system.cpu.commit.committed_per_cycle::stdev     1.283785                       # Number of insts commited each cycle
system.cpu.commit.committed_per_cycle::underflows            0      0.00%      0.00% # Number of insts commited each cycle
system.cpu.commit.committed_per_cycle::0       246404     21.27%     21.27% # Number of insts commited each cycle
system.cpu.commit.committed_per_cycle::1       368413     31.80%     53.07% # Number of insts commited each cycle
system.cpu.commit.committed_per_cycle::2       270495     23.35%     76.42% # Number of insts commited each cycle
system.cpu.commit.committed_per_cycle::3       218206     18.84%     95.26% # Number of insts commited each cycle
system.cpu.commit.committed_per_cycle::4        22438      1.94%     97.19% # Number of insts commited each cycle
system.cpu.commit.committed_per_cycle::5        21662      1.87%     99.06% # Number of insts commited each cycle
system.cpu.commit.committed_per_cycle::6         3526      0.30%     99.37% # Number of insts commited each cycle
system.cpu.commit.committed_per_cycle::7         6195      0.53%     99.90% # Number of insts commited each cycle
system.cpu.commit.committed_per_cycle::8         1138      0.10%    100.00% # Number of insts commited each cycle
system.cpu.commit.committed_per_cycle::overflows            0      0.00%    100.00% # Number of insts commited each cycle
system.cpu.commit.committed_per_cycle::min_value            0                       # Number of insts commited each cycle
system.cpu.commit.committed_per_cycle::max_value            8                       # Number of insts commited each cycle
system.cpu.commit.committed_per_cycle::total      1158477                       # Number of insts commited each cycle
system.cpu.commit.committedInsts              1791777                       # Number of instructions committed
system.cpu.commit.committedOps                1835708                       # Number of ops (including micro ops) committed
system.cpu.commit.swp_count                         0                       # Number of s/w prefetches committed
system.cpu.commit.refs                         160226                       # Number of memory references committed
system.cpu.commit.loads                        135236                       # Number of loads committed
system.cpu.commit.membars                          50                       # Number of memory barriers committed
system.cpu.commit.branches                     246628                       # Number of branches committed
system.cpu.commit.fp_insts                         16                       # Number of committed floating point instructions.
system.cpu.commit.int_insts                   1633205                       # Number of committed integer instructions.
system.cpu.commit.function_calls                21875                       # Number of function calls committed.
system.cpu.commit.op_class_0::No_OpClass            0      0.00%      0.00% # Class of committed instruction
system.cpu.commit.op_class_0::IntAlu          1675367     91.27%     91.27% # Class of committed instruction
system.cpu.commit.op_class_0::IntMult             108      0.01%     91.27% # Class of committed instruction
system.cpu.commit.op_class_0::IntDiv                0      0.00%     91.27% # Class of committed instruction
system.cpu.commit.op_class_0::FloatAdd              0      0.00%     91.27% # Class of committed instruction
system.cpu.commit.op_class_0::FloatCmp              0      0.00%     91.27% # Class of committed instruction
system.cpu.commit.op_class_0::FloatCvt              0      0.00%     91.27% # Class of committed instruction
system.cpu.commit.op_class_0::FloatMult             0      0.00%     91.27% # Class of committed instruction
system.cpu.commit.op_class_0::FloatDiv              0      0.00%     91.27% # Class of committed instruction
system.cpu.commit.op_class_0::FloatSqrt             0      0.00%     91.27% # Class of committed instruction
system.cpu.commit.op_class_0::SimdAdd               0      0.00%     91.27% # Class of committed instruction
system.cpu.commit.op_class_0::SimdAddAcc            0      0.00%     91.27% # Class of committed instruction
system.cpu.commit.op_class_0::SimdAlu               0      0.00%     91.27% # Class of committed instruction
system.cpu.commit.op_class_0::SimdCmp               0      0.00%     91.27% # Class of committed instruction
system.cpu.commit.op_class_0::SimdCvt               0      0.00%     91.27% # Class of committed instruction
system.cpu.commit.op_class_0::SimdMisc              0      0.00%     91.27% # Class of committed instruction
system.cpu.commit.op_class_0::SimdMult              0      0.00%     91.27% # Class of committed instruction
system.cpu.commit.op_class_0::SimdMultAcc            0      0.00%     91.27% # Class of committed instruction
system.cpu.commit.op_class_0::SimdShift             0      0.00%     91.27% # Class of committed instruction
system.cpu.commit.op_class_0::SimdShiftAcc            0      0.00%     91.27% # Class of committed instruction
system.cpu.commit.op_class_0::SimdSqrt              0      0.00%     91.27% # Class of committed instruction
system.cpu.commit.op_class_0::SimdFloatAdd            0      0.00%     91.27% # Class of committed instruction
system.cpu.commit.op_class_0::SimdFloatAlu            0      0.00%     91.27% # Class of committed instruction
system.cpu.commit.op_class_0::SimdFloatCmp            0      0.00%     91.27% # Class of committed instruction
system.cpu.commit.op_class_0::SimdFloatCvt            0      0.00%     91.27% # Class of committed instruction
system.cpu.commit.op_class_0::SimdFloatDiv            0      0.00%     91.27% # Class of committed instruction
system.cpu.commit.op_class_0::SimdFloatMisc            7      0.00%     91.27% # Class of committed instruction
system.cpu.commit.op_class_0::SimdFloatMult            0      0.00%     91.27% # Class of committed instruction
system.cpu.commit.op_class_0::SimdFloatMultAcc            0      0.00%     91.27% # Class of committed instruction
system.cpu.commit.op_class_0::SimdFloatSqrt            0      0.00%     91.27% # Class of committed instruction
system.cpu.commit.op_class_0::MemRead          135236      7.37%     98.64% # Class of committed instruction
system.cpu.commit.op_class_0::MemWrite          24990      1.36%    100.00% # Class of committed instruction
system.cpu.commit.op_class_0::IprAccess             0      0.00%    100.00% # Class of committed instruction
system.cpu.commit.op_class_0::InstPrefetch            0      0.00%    100.00% # Class of committed instruction
system.cpu.commit.op_class_0::total           1835708                       # Class of committed instruction
system.cpu.commit.bw_lim_events                  1138                       # number cycles where commit BW limit reached
system.cpu.rob.rob_reads                      3039494                       # The number of ROB reads
system.cpu.rob.rob_writes                     3774484                       # The number of ROB writes
system.cpu.timesIdled                            1439                       # Number of times that the entire CPU went into an idle state and unscheduled itself
system.cpu.idleCycles                           86902                       # Total number of cycles that the CPU has spent unscheduled due to idling
system.cpu.committedInsts                     1791777                       # Number of Instructions Simulated
system.cpu.committedOps                       1835708                       # Number of Ops (including micro ops) Simulated
system.cpu.cpi                               0.700218                       # CPI: Cycles Per Instruction
[...]
system.cpu.dcache.blocked::no_targets              74                       # number of cycles access was blocked
system.cpu.dcache.avg_blocked_cycles::no_mshrs           17                       # average number of cycles each access was blocked
system.cpu.dcache.avg_blocked_cycles::no_targets    46.918919                       # average number of cycles each access was blocked
system.cpu.dcache.fast_writes                       0                       # number of fast writes performed
system.cpu.dcache.cache_copies                      0                       # number of cache copies performed
system.cpu.dcache.writebacks::writebacks          698                       # number of writebacks
system.cpu.dcache.writebacks::total               698                       # number of writebacks
system.cpu.dcache.ReadReq_mshr_hits::cpu.data         1097                       # number of ReadReq MSHR hits
system.cpu.dcache.ReadReq_mshr_hits::total         1097                       # number of ReadReq MSHR hits
system.cpu.dcache.WriteReq_mshr_hits::cpu.data         1120                       # number of WriteReq MSHR hits
system.cpu.dcache.WriteReq_mshr_hits::total         1120                       # number of WriteReq MSHR hits
system.cpu.dcache.LoadLockedReq_mshr_hits::cpu.data           12                       # number of LoadLockedReq MSHR hits
system.cpu.dcache.LoadLockedReq_mshr_hits::total           12                       # number of LoadLockedReq MSHR hits
system.cpu.dcache.demand_mshr_hits::cpu.data         2217                       # number of demand (read+write) MSHR hits
system.cpu.dcache.demand_mshr_hits::total         2217                       # number of demand (read+write) MSHR hits
system.cpu.dcache.overall_mshr_hits::cpu.data         2217                       # number of overall MSHR hits
system.cpu.dcache.overall_mshr_hits::total         2217                       # number of overall MSHR hits
system.cpu.dcache.ReadReq_mshr_misses::cpu.data         1599                       # number of ReadReq MSHR misses
system.cpu.dcache.ReadReq_mshr_misses::total         1599                       # number of ReadReq MSHR misses
system.cpu.dcache.WriteReq_mshr_misses::cpu.data          435                       # number of WriteReq MSHR misses
system.cpu.dcache.WriteReq_mshr_misses::total          435                       # number of WriteReq MSHR misses
system.cpu.dcache.demand_mshr_misses::cpu.data         2034                       # number of demand (read+write) MSHR misses
system.cpu.dcache.demand_mshr_misses::total         2034                       # number of demand (read+write) MSHR misses
system.cpu.dcache.overall_mshr_misses::cpu.data         2034                       # number of overall MSHR misses
system.cpu.dcache.overall_mshr_misses::total         2034                       # number of overall MSHR misses
system.cpu.dcache.ReadReq_mshr_miss_latency::cpu.data     77618500                       # number of ReadReq MSHR miss cycles
system.cpu.dcache.ReadReq_mshr_miss_latency::total     77618500                       # number of ReadReq MSHR miss cycles
system.cpu.dcache.WriteReq_mshr_miss_latency::cpu.data     11643748                       # number of WriteReq MSHR miss cycles
system.cpu.dcache.WriteReq_mshr_miss_latency::total     11643748                       # number of WriteReq MSHR miss cycles
system.cpu.dcache.demand_mshr_miss_latency::cpu.data     89262248                       # number of demand (read+write) MSHR miss cycles
system.cpu.dcache.demand_mshr_miss_latency::total     89262248                       # number of demand (read+write) MSHR miss cycles
system.cpu.dcache.overall_mshr_miss_latency::cpu.data     89262248                       # number of overall MSHR miss cycles
system.cpu.dcache.overall_mshr_miss_latency::total     89262248                       # number of overall MSHR miss cycles
system.cpu.dcache.ReadReq_mshr_miss_rate::cpu.data     0.011952                       # mshr miss rate for ReadReq accesses
system.cpu.dcache.ReadReq_mshr_miss_rate::total     0.011952                       # mshr miss rate for ReadReq accesses
system.cpu.dcache.WriteReq_mshr_miss_rate::cpu.data     0.017676                       # mshr miss rate for WriteReq accesses
system.cpu.dcache.WriteReq_mshr_miss_rate::total     0.017676                       # mshr miss rate for WriteReq accesses
system.cpu.dcache.demand_mshr_miss_rate::cpu.data     0.012841                       # mshr miss rate for demand accesses
system.cpu.dcache.demand_mshr_miss_rate::total     0.012841                       # mshr miss rate for demand accesses
system.cpu.dcache.overall_mshr_miss_rate::cpu.data     0.012841                       # mshr miss rate for overall accesses
system.cpu.dcache.overall_mshr_miss_rate::total     0.012841                       # mshr miss rate for overall accesses
system.cpu.dcache.ReadReq_avg_mshr_miss_latency::cpu.data 48541.901188                       # average ReadReq mshr miss latency
system.cpu.dcache.ReadReq_avg_mshr_miss_latency::total 48541.901188                       # average ReadReq mshr miss latency
system.cpu.dcache.WriteReq_avg_mshr_miss_latency::cpu.data 26767.236782                       # average WriteReq mshr miss latency
system.cpu.dcache.WriteReq_avg_mshr_miss_latency::total 26767.236782                       # average WriteReq mshr miss latency
system.cpu.dcache.demand_avg_mshr_miss_latency::cpu.data 43885.077679                       # average overall mshr miss latency
system.cpu.dcache.demand_avg_mshr_miss_latency::total 43885.077679                       # average overall mshr miss latency
system.cpu.dcache.overall_avg_mshr_miss_latency::cpu.data 43885.077679                       # average overall mshr miss latency
system.cpu.dcache.overall_avg_mshr_miss_latency::total 43885.077679                       # average overall mshr miss latency
system.cpu.dcache.no_allocate_misses                0                       # Number of misses that were no-allocate
system.cpu.icache.tags.replacements               948                       # number of replacements
system.cpu.icache.tags.tagsinuse           384.580026                       # Cycle average of tags in use
system.cpu.icache.tags.total_refs              755451                       # Total number of references to valid blocks.
system.cpu.icache.tags.sampled_refs              1377                       # Sample count of references to valid blocks.
system.cpu.icache.tags.avg_refs            548.620915                       # Average number of references to valid blocks.
system.cpu.icache.tags.warmup_cycle                 0                       # Cycle when the warmup percentage was hit.
system.cpu.icache.tags.occ_blocks::cpu.inst   384.580026                       # Average occupied blocks per requestor
system.cpu.icache.tags.occ_percent::cpu.inst     0.751133                       # Average percentage of cache occupancy
system.cpu.icache.tags.occ_percent::total     0.751133                       # Average percentage of cache occupancy
system.cpu.icache.tags.occ_task_id_blocks::1024          429                       # Occupied blocks per task id
system.cpu.icache.tags.age_task_id_blocks_1024::0           88                       # Occupied blocks per task id
system.cpu.icache.tags.age_task_id_blocks_1024::1           22                       # Occupied blocks per task id
system.cpu.icache.tags.age_task_id_blocks_1024::2          319                       # Occupied blocks per task id
system.cpu.icache.tags.occ_task_id_percent::1024     0.837891                       # Percentage of cache occupancy per task id
system.cpu.icache.tags.tag_accesses           1515521                       # Number of tag accesses
system.cpu.icache.tags.data_accesses          1515521                       # Number of data accesses
system.cpu.icache.ReadReq_hits::cpu.inst       755451                       # number of ReadReq hits
system.cpu.icache.ReadReq_hits::total          755451                       # number of ReadReq hits
system.cpu.icache.demand_hits::cpu.inst        755451                       # number of demand (read+write) hits
system.cpu.icache.demand_hits::total           755451                       # number of demand (read+write) hits
system.cpu.icache.overall_hits::cpu.inst       755451                       # number of overall hits
system.cpu.icache.overall_hits::total          755451                       # number of overall hits
system.cpu.icache.ReadReq_misses::cpu.inst         1621                       # number of ReadReq misses
system.cpu.icache.ReadReq_misses::total          1621                       # number of ReadReq misses
system.cpu.icache.demand_misses::cpu.inst         1621                       # number of demand (read+write) misses
system.cpu.icache.demand_misses::total           1621                       # number of demand (read+write) misses
system.cpu.icache.overall_misses::cpu.inst         1621                       # number of overall misses
system.cpu.icache.overall_misses::total          1621                       # number of overall misses
system.cpu.icache.ReadReq_miss_latency::cpu.inst     90458223                       # number of ReadReq miss cycles
system.cpu.icache.ReadReq_miss_latency::total     90458223                       # number of ReadReq miss cycles
system.cpu.icache.demand_miss_latency::cpu.inst     90458223                       # number of demand (read+write) miss cycles
system.cpu.icache.demand_miss_latency::total     90458223                       # number of demand (read+write) miss cycles
system.cpu.icache.overall_miss_latency::cpu.inst     90458223                       # number of overall miss cycles
system.cpu.icache.overall_miss_latency::total     90458223                       # number of overall miss cycles
system.cpu.icache.ReadReq_accesses::cpu.inst       757072                       # number of ReadReq accesses(hits+misses)
system.cpu.icache.ReadReq_accesses::total       757072                       # number of ReadReq accesses(hits+misses)
system.cpu.icache.demand_accesses::cpu.inst       757072                       # number of demand (read+write) accesses
system.cpu.icache.demand_accesses::total       757072                       # number of demand (read+write) accesses
system.cpu.icache.overall_accesses::cpu.inst       757072                       # number of overall (read+write) accesses
system.cpu.icache.overall_accesses::total       757072                       # number of overall (read+write) accesses
system.cpu.icache.ReadReq_miss_rate::cpu.inst     0.002141                       # miss rate for ReadReq accesses
system.cpu.icache.ReadReq_miss_rate::total     0.002141                       # miss rate for ReadReq accesses
system.cpu.icache.demand_miss_rate::cpu.inst     0.002141                       # miss rate for demand accesses
system.cpu.icache.demand_miss_rate::total     0.002141                       # miss rate for demand accesses
system.cpu.icache.overall_miss_rate::cpu.inst     0.002141                       # miss rate for overall accesses
system.cpu.icache.overall_miss_rate::total     0.002141                       # miss rate for overall accesses
system.cpu.icache.ReadReq_avg_miss_latency::cpu.inst 55803.962369                       # average ReadReq miss latency
system.cpu.icache.ReadReq_avg_miss_latency::total 55803.962369                       # average ReadReq miss latency
system.cpu.icache.demand_avg_miss_latency::cpu.inst 55803.962369                       # average overall miss latency
system.cpu.icache.demand_avg_miss_latency::total 55803.962369                       # average overall miss latency
system.cpu.icache.overall_avg_miss_latency::cpu.inst 55803.962369                       # average overall miss latency
system.cpu.icache.overall_avg_miss_latency::total 55803.962369                       # average overall miss latency
system.cpu.icache.blocked_cycles::no_mshrs        22509                       # number of cycles access was blocked
system.cpu.icache.blocked_cycles::no_targets            0                       # number of cycles access was blocked
system.cpu.icache.blocked::no_mshrs               288                       # number of cycles access was blocked
system.cpu.icache.blocked::no_targets               0                       # number of cycles access was blocked
system.cpu.icache.avg_blocked_cycles::no_mshrs    78.156250                       # average number of cycles each access was blocked
system.cpu.icache.avg_blocked_cycles::no_targets          nan                       # average number of cycles each access was blocked
system.cpu.icache.fast_writes                       0                       # number of fast writes performed
system.cpu.icache.cache_copies                      0                       # number of cache copies performed
system.cpu.icache.ReadReq_mshr_hits::cpu.inst          243                       # number of ReadReq MSHR hits
system.cpu.icache.ReadReq_mshr_hits::total          243                       # number of ReadReq MSHR hits
system.cpu.icache.demand_mshr_hits::cpu.inst          243                       # number of demand (read+write) MSHR hits
system.cpu.icache.demand_mshr_hits::total          243                       # number of demand (read+write) MSHR hits
system.cpu.icache.overall_mshr_hits::cpu.inst          243                       # number of overall MSHR hits
system.cpu.icache.overall_mshr_hits::total          243                       # number of overall MSHR hits
system.cpu.icache.ReadReq_mshr_misses::cpu.inst         1378                       # number of ReadReq MSHR misses
system.cpu.icache.ReadReq_mshr_misses::total         1378                       # number of ReadReq MSHR misses
system.cpu.icache.demand_mshr_misses::cpu.inst         1378                       # number of demand (read+write) MSHR misses
system.cpu.icache.demand_mshr_misses::total         1378                       # number of demand (read+write) MSHR misses
system.cpu.icache.overall_mshr_misses::cpu.inst         1378                       # number of overall MSHR misses
system.cpu.icache.overall_mshr_misses::total         1378                       # number of overall MSHR misses
system.cpu.icache.ReadReq_mshr_miss_latency::cpu.inst     76958733                       # number of ReadReq MSHR miss cycles
system.cpu.icache.ReadReq_mshr_miss_latency::total     76958733                       # number of ReadReq MSHR miss cycles
system.cpu.icache.demand_mshr_miss_latency::cpu.inst     76958733                       # number of demand (read+write) MSHR miss cycles
system.cpu.icache.demand_mshr_miss_latency::total     76958733                       # number of demand (read+write) MSHR miss cycles
system.cpu.icache.overall_mshr_miss_latency::cpu.inst     76958733                       # number of overall MSHR miss cycles
system.cpu.icache.overall_mshr_miss_latency::total     76958733                       # number of overall MSHR miss cycles
system.cpu.icache.ReadReq_mshr_miss_rate::cpu.inst     0.001820                       # mshr miss rate for ReadReq accesses
system.cpu.icache.ReadReq_mshr_miss_rate::total     0.001820                       # mshr miss rate for ReadReq accesses
system.cpu.icache.demand_mshr_miss_rate::cpu.inst     0.001820                       # mshr miss rate for demand accesses
system.cpu.icache.demand_mshr_miss_rate::total     0.001820                       # mshr miss rate for demand accesses
system.cpu.icache.overall_mshr_miss_rate::cpu.inst     0.001820                       # mshr miss rate for overall accesses
system.cpu.icache.overall_mshr_miss_rate::total     0.001820                       # mshr miss rate for overall accesses
system.cpu.icache.ReadReq_avg_mshr_miss_latency::cpu.inst 55848.137155                       # average ReadReq mshr miss latency
system.cpu.icache.ReadReq_avg_mshr_miss_latency::total 55848.137155                       # average ReadReq mshr miss latency
system.cpu.icache.demand_avg_mshr_miss_latency::cpu.inst 55848.137155                       # average overall mshr miss latency
system.cpu.icache.demand_avg_mshr_miss_latency::total 55848.137155                       # average overall mshr miss latency
system.cpu.icache.overall_avg_mshr_miss_latency::cpu.inst 55848.137155                       # average overall mshr miss latency
system.cpu.icache.overall_avg_mshr_miss_latency::total 55848.137155                       # average overall mshr miss latency
system.cpu.icache.no_allocate_misses                0                       # Number of misses that were no-allocate
system.membus.trans_dist::ReadReq                2976                       # Transaction distribution
system.membus.trans_dist::ReadResp               2975                       # Transaction distribution
system.membus.trans_dist::Writeback               698                       # Transaction distribution
system.membus.trans_dist::ReadExReq               436                       # Transaction distribution
system.membus.trans_dist::ReadExResp              436                       # Transaction distribution
system.membus.pkt_count_system.cpu.icache.mem_side::system.mem_ctrls.port         2755                       # Packet count per connected master and slave (bytes)
system.membus.pkt_count_system.cpu.dcache.mem_side::system.mem_ctrls.port         4766                       # Packet count per connected master and slave (bytes)
system.membus.pkt_count::total                   7521                       # Packet count per connected master and slave (bytes)
system.membus.pkt_size_system.cpu.icache.mem_side::system.mem_ctrls.port        88128                       # Cumulative packet size per connected master and slave (bytes)
system.membus.pkt_size_system.cpu.dcache.mem_side::system.mem_ctrls.port       174848                       # Cumulative packet size per connected master and slave (bytes)
system.membus.pkt_size::total                  262976                       # Cumulative packet size per connected master and slave (bytes)
system.membus.snoops                                0                       # Total snoops (count)
system.membus.snoop_fanout::samples              4110                       # Request fanout histogram
system.membus.snoop_fanout::mean                    1                       # Request fanout histogram
system.membus.snoop_fanout::stdev                   0                       # Request fanout histogram
system.membus.snoop_fanout::underflows              0      0.00%      0.00% # Request fanout histogram
system.membus.snoop_fanout::0                       0      0.00%      0.00% # Request fanout histogram
system.membus.snoop_fanout::1                    4110    100.00%    100.00% # Request fanout histogram
system.membus.snoop_fanout::2                       0      0.00%    100.00% # Request fanout histogram
system.membus.snoop_fanout::overflows               0      0.00%    100.00% # Request fanout histogram
system.membus.snoop_fanout::min_value               1                       # Request fanout histogram
system.membus.snoop_fanout::max_value               1                       # Request fanout histogram
system.membus.snoop_fanout::total                4110                       # Request fanout histogram
system.membus.reqLayer0.occupancy             7699000                       # Layer occupancy (ticks)
system.membus.reqLayer0.utilization               1.2                       # Layer utilization (%)
system.membus.respLayer1.occupancy            7343498                       # Layer occupancy (ticks)
system.membus.respLayer1.utilization              1.2                       # Layer utilization (%)
system.membus.respLayer2.occupancy           10599250                       # Layer occupancy (ticks)
system.membus.respLayer2.utilization              1.7                       # Layer utilization (%)

---------- End Simulation Statistics   ----------
