
---------- Begin Simulation Statistics ----------
sim_seconds                                  0.000629                       # Number of seconds simulated
sim_ticks                                   628765500                       # Number of ticks simulated
final_tick                                  628765500                       # Number of ticks from beginning of simulation (restored from checkpoints and never reset)
sim_freq                                 1000000000000                       # Frequency of simulated ticks
host_inst_rate                                 332499                       # Simulator instruction rate (inst/s)
host_op_rate                                   340650                       # Simulator op (including micro ops) rate (op/s)
host_tick_rate                              116678486                       # Simulator tick rate (ticks/s)
host_mem_usage                                 643768                       # Number of bytes of host memory used
host_seconds                                     5.39                       # Real time elapsed on the host
sim_insts                                     1791787                       # Number of instructions simulated
sim_ops                                       1835718                       # Number of ops (including micro ops) simulated
system.voltage_domain.voltage                       1                       # Voltage in Volts
system.clk_domain.clock                          1000                       # Clock period in ticks
system.mem_ctrls.bytes_read::cpu.inst           88064                       # Number of bytes read from this memory
system.mem_ctrls.bytes_read::cpu.data          132992                       # Number of bytes read from this memory
system.mem_ctrls.bytes_read::total             221056                       # Number of bytes read from this memory
system.mem_ctrls.bytes_inst_read::cpu.inst        88064                       # Number of instructions bytes read from this memory
system.mem_ctrls.bytes_inst_read::total         88064                       # Number of instructions bytes read from this memory
system.mem_ctrls.bytes_written::writebacks        41216                       # Number of bytes written to this memory
system.mem_ctrls.bytes_written::total           41216                       # Number of bytes written to this memory
system.mem_ctrls.num_reads::cpu.inst             1376                       # Number of read requests responded to by this memory
system.mem_ctrls.num_reads::cpu.data             2078                       # Number of read requests responded to by this memory
system.mem_ctrls.num_reads::total                3454                       # Number of read requests responded to by this memory
system.mem_ctrls.num_writes::writebacks           644                       # Number of write requests responded to by this memory
system.mem_ctrls.num_writes::total                644                       # Number of write requests responded to by this memory
system.mem_ctrls.bw_read::cpu.inst          140058575                       # Total read bandwidth from this memory (bytes/s)
system.mem_ctrls.bw_read::cpu.data          211512877                       # Total read bandwidth from this memory (bytes/s)
system.mem_ctrls.bw_read::total             351571452                       # Total read bandwidth from this memory (bytes/s)
system.mem_ctrls.bw_inst_read::cpu.inst     140058575                       # Instruction read bandwidth from this memory (bytes/s)
system.mem_ctrls.bw_inst_read::total        140058575                       # Instruction read bandwidth from this memory (bytes/s)
system.mem_ctrls.bw_write::writebacks        65550670                       # Write bandwidth from this memory (bytes/s)
system.mem_ctrls.bw_write::total             65550670                       # Write bandwidth from this memory (bytes/s)
system.mem_ctrls.bw_total::writebacks        65550670                       # Total bandwidth to/from this memory (bytes/s)
system.mem_ctrls.bw_total::cpu.inst         140058575                       # Total bandwidth to/from this memory (bytes/s)
system.mem_ctrls.bw_total::cpu.data         211512877                       # Total bandwidth to/from this memory (bytes/s)
system.mem_ctrls.bw_total::total            417122123                       # Total bandwidth to/from this memory (bytes/s)
system.mem_ctrls.readReqs                        3454                       # Number of read requests accepted
system.mem_ctrls.writeReqs                        644                       # Number of write requests accepted
system.mem_ctrls.readBursts                      3454                       # Number of DRAM read bursts, including those serviced by the write queue
system.mem_ctrls.writeBursts                      644                       # Number of DRAM write bursts, including those merged in the write queue
system.mem_ctrls.bytesReadDRAM                 174272                       # Total number of bytes read from DRAM
system.mem_ctrls.bytesReadWrQ                   46784                       # Total number of bytes read from write queue
system.mem_ctrls.bytesWritten                    7296                       # Total number of bytes written to DRAM
system.mem_ctrls.bytesReadSys                  221056                       # Total read bytes from the system interface side
system.mem_ctrls.bytesWrittenSys                41216                       # Total written bytes from the system interface side
system.mem_ctrls.servicedByWrQ                    731                       # Number of DRAM read bursts serviced by the write queue
system.mem_ctrls.mergedWrBursts                   502                       # Number of DRAM write bursts merged with an existing one
system.mem_ctrls.neitherReadNorWriteReqs            0                       # Number of requests that are neither read nor write
system.mem_ctrls.perBankRdBursts::0               300                       # Per bank write bursts
system.mem_ctrls.perBankRdBursts::1                49                       # Per bank write bursts
system.mem_ctrls.perBankRdBursts::2                72                       # Per bank write bursts
system.mem_ctrls.perBankRdBursts::3               133                       # Per bank write bursts
system.mem_ctrls.perBankRdBursts::4               453                       # Per bank write bursts
system.mem_ctrls.perBankRdBursts::5               216                       # Per bank write bursts
system.mem_ctrls.perBankRdBursts::6               439                       # Per bank write bursts
system.mem_ctrls.perBankRdBursts::7               185                       # Per bank write bursts
system.mem_ctrls.perBankRdBursts::8               253                       # Per bank write bursts
system.mem_ctrls.perBankRdBursts::9               164                       # Per bank write bursts
system.mem_ctrls.perBankRdBursts::10               80                       # Per bank write bursts
system.mem_ctrls.perBankRdBursts::11               36                       # Per bank write bursts
system.mem_ctrls.perBankRdBursts::12              196                       # Per bank write bursts
system.mem_ctrls.perBankRdBursts::13               32                       # Per bank write bursts
system.mem_ctrls.perBankRdBursts::14              104                       # Per bank write bursts
system.mem_ctrls.perBankRdBursts::15               11                       # Per bank write bursts
system.mem_ctrls.perBankWrBursts::0                 0                       # Per bank write bursts
system.mem_ctrls.perBankWrBursts::1                 0                       # Per bank write bursts
system.mem_ctrls.perBankWrBursts::2                 0                       # Per bank write bursts
system.mem_ctrls.perBankWrBursts::3                 0                       # Per bank write bursts
system.mem_ctrls.perBankWrBursts::4                39                       # Per bank write bursts
system.mem_ctrls.perBankWrBursts::5                49                       # Per bank write bursts
system.mem_ctrls.perBankWrBursts::6                15                       # Per bank write bursts
system.mem_ctrls.perBankWrBursts::7                10                       # Per bank write bursts
system.mem_ctrls.perBankWrBursts::8                 1                       # Per bank write bursts
system.mem_ctrls.perBankWrBursts::9                 0                       # Per bank write bursts
system.mem_ctrls.perBankWrBursts::10                0                       # Per bank write bursts
system.mem_ctrls.perBankWrBursts::11                0                       # Per bank write bursts
system.mem_ctrls.perBankWrBursts::12                0                       # Per bank write bursts
system.mem_ctrls.perBankWrBursts::13                0                       # Per bank write bursts
system.mem_ctrls.perBankWrBursts::14                0                       # Per bank write bursts
system.mem_ctrls.perBankWrBursts::15                0                       # Per bank write bursts
system.mem_ctrls.numRdRetry                         0                       # Number of times read queue was full causing retry
system.mem_ctrls.numWrRetry                         0                       # Number of times write queue was full causing retry
system.mem_ctrls.totGap                     628738500                       # Total gap between requests
system.mem_ctrls.readPktSize::0                     0                       # Read request sizes (log2)
system.mem_ctrls.readPktSize::1                     0                       # Read request sizes (log2)
system.mem_ctrls.readPktSize::2                     0                       # Read request sizes (log2)
system.mem_ctrls.readPktSize::3                     0                       # Read request sizes (log2)
system.mem_ctrls.readPktSize::4                     0                       # Read request sizes (log2)
system.mem_ctrls.readPktSize::5                     0                       # Read request sizes (log2)
system.mem_ctrls.readPktSize::6                  3454                       # Read request sizes (log2)
system.mem_ctrls.writePktSize::0                    0                       # Write request sizes (log2)
system.mem_ctrls.writePktSize::1                    0                       # Write request sizes (log2)
system.mem_ctrls.writePktSize::2                    0                       # Write request sizes (log2)
system.mem_ctrls.writePktSize::3                    0                       # Write request sizes (log2)
system.mem_ctrls.writePktSize::4                    0                       # Write request sizes (log2)
system.mem_ctrls.writePktSize::5                    0                       # Write request sizes (log2)
system.mem_ctrls.writePktSize::6                  644                       # Write request sizes (log2)
system.mem_ctrls.rdQLenPdf::0                    1618                       # What read queue length does an incoming req see
system.mem_ctrls.rdQLenPdf::1                     780                       # What read queue length does an incoming req see
system.mem_ctrls.rdQLenPdf::2                     252                       # What read queue length does an incoming req see
system.mem_ctrls.rdQLenPdf::3                      57                       # What read queue length does an incoming req see
system.mem_ctrls.rdQLenPdf::4                      11                       # What read queue length does an incoming req see
system.mem_ctrls.rdQLenPdf::5                       4                       # What read queue length does an incoming req see
system.mem_ctrls.rdQLenPdf::6                       1                       # What read queue length does an incoming req see
system.mem_ctrls.rdQLenPdf::7                       0                       # What read queue length does an incoming req see
system.mem_ctrls.rdQLenPdf::8                       0                       # What read queue length does an incoming req see
system.mem_ctrls.rdQLenPdf::9                       0                       # What read queue length does an incoming req see
system.mem_ctrls.rdQLenPdf::10                      0                       # What read queue length does an incoming req see
system.mem_ctrls.rdQLenPdf::11                      0                       # What read queue length does an incoming req see
system.mem_ctrls.rdQLenPdf::12                      0                       # What read queue length does an incoming req see
system.mem_ctrls.rdQLenPdf::13                      0                       # What read queue length does an incoming req see
system.mem_ctrls.rdQLenPdf::14                      0                       # What read queue length does an incoming req see
system.mem_ctrls.rdQLenPdf::15                      0                       # What read queue length does an incoming req see
system.mem_ctrls.rdQLenPdf::16                      0                       # What read queue length does an incoming req see
system.mem_ctrls.rdQLenPdf::17                      0                       # What read queue length does an incoming req see
system.mem_ctrls.rdQLenPdf::18                      0                       # What read queue length does an incoming req see
system.mem_ctrls.rdQLenPdf::19                      0                       # What read queue length does an incoming req see
system.mem_ctrls.rdQLenPdf::20                      0                       # What read queue length does an incoming req see
system.mem_ctrls.rdQLenPdf::21                      0                       # What read queue length does an incoming req see
system.mem_ctrls.rdQLenPdf::22                      0                       # What read queue length does an incoming req see
system.mem_ctrls.rdQLenPdf::23                      0                       # What read queue length does an incoming req see
system.mem_ctrls.rdQLenPdf::24                      0                       # What read queue length does an incoming req see
system.mem_ctrls.rdQLenPdf::25                      0                       # What read queue length does an incoming req see
system.mem_ctrls.rdQLenPdf::26                      0                       # What read queue length does an incoming req see
system.mem_ctrls.rdQLenPdf::27                      0                       # What read queue length does an incoming req see
system.mem_ctrls.rdQLenPdf::28                      0                       # What read queue length does an incoming req see
system.mem_ctrls.rdQLenPdf::29                      0                       # What read queue length does an incoming req see
system.mem_ctrls.rdQLenPdf::30                      0                       # What read queue length does an incoming req see
system.mem_ctrls.rdQLenPdf::31                      0                       # What read queue length does an incoming req see
system.mem_ctrls.wrQLenPdf::0                       1                       # What write queue length does an incoming req see
system.mem_ctrls.wrQLenPdf::1                       1                       # What write queue length does an incoming req see
system.mem_ctrls.wrQLenPdf::2                       1                       # What write queue length does an incoming req see
system.mem_ctrls.wrQLenPdf::3                       1                       # What write queue length does an incoming req see
system.mem_ctrls.wrQLenPdf::4                       1                       # What write queue length does an incoming req see
system.mem_ctrls.wrQLenPdf::5                       1                       # What write queue length does an incoming req see
system.mem_ctrls.wrQLenPdf::6                       1                       # What write queue length does an incoming req see
system.mem_ctrls.wrQLenPdf::7                       1                       # What write queue length does an incoming req see
system.mem_ctrls.wrQLenPdf::8                       1                       # What write queue length does an incoming req see
system.mem_ctrls.wrQLenPdf::9                       1                       # What write queue length does an incoming req see
system.mem_ctrls.wrQLenPdf::10                      1                       # What write queue length does an incoming req see
system.mem_ctrls.wrQLenPdf::11                      1                       # What write queue length does an incoming req see
system.mem_ctrls.wrQLenPdf::12                      1                       # What write queue length does an incoming req see
system.mem_ctrls.wrQLenPdf::13                      1                       # What write queue length does an incoming req see
system.mem_ctrls.wrQLenPdf::14                      1                       # What write queue length does an incoming req see
system.mem_ctrls.wrQLenPdf::15                      1                       # What write queue length does an incoming req see
system.mem_ctrls.wrQLenPdf::16                      2                       # What write queue length does an incoming req see
system.mem_ctrls.wrQLenPdf::17                      6                       # What write queue length does an incoming req see
system.mem_ctrls.wrQLenPdf::18                      8                       # What write queue length does an incoming req see
system.mem_ctrls.wrQLenPdf::19                      9                       # What write queue length does an incoming req see
system.mem_ctrls.wrQLenPdf::20                      8                       # What write queue length does an incoming req see
system.mem_ctrls.wrQLenPdf::21                      8                       # What write queue length does an incoming req see
system.mem_ctrls.wrQLenPdf::22                      9                       # What write queue length does an incoming req see
system.mem_ctrls.wrQLenPdf::23                      8                       # What write queue length does an incoming req see
system.mem_ctrls.wrQLenPdf::24                      8                       # What write queue length does an incoming req see
system.mem_ctrls.wrQLenPdf::25                      9                       # What write queue length does an incoming req see
system.mem_ctrls.wrQLenPdf::26                      8                       # What write queue length does an incoming req see
system.mem_ctrls.wrQLenPdf::27                      8                       # What write queue length does an incoming req see
system.mem_ctrls.wrQLenPdf::28                      7                       # What write queue length does an incoming req see
system.mem_ctrls.wrQLenPdf::29                      7                       # What write queue length does an incoming req see
system.mem_ctrls.wrQLenPdf::30                      7                       # What write queue length does an incoming req see
system.mem_ctrls.wrQLenPdf::31                      7                       # What write queue length does an incoming req see
system.mem_ctrls.wrQLenPdf::32                      7                       # What write queue length does an incoming req see
system.mem_ctrls.wrQLenPdf::33                      0                       # What write queue length does an incoming req see
system.mem_ctrls.wrQLenPdf::34                      0                       # What write queue length does an incoming req see
system.mem_ctrls.wrQLenPdf::35                      0                       # What write queue length does an incoming req see
system.mem_ctrls.wrQLenPdf::36                      0                       # What write queue length does an incoming req see
system.mem_ctrls.wrQLenPdf::37                      0                       # What write queue length does an incoming req see
system.mem_ctrls.wrQLenPdf::38                      0                       # What write queue length does an incoming req see
system.mem_ctrls.wrQLenPdf::39                      0                       # What write queue length does an incoming req see
system.mem_ctrls.wrQLenPdf::40                      0                       # What write queue length does an incoming req see
system.mem_ctrls.wrQLenPdf::41                      0                       # What write queue length does an incoming req see
system.mem_ctrls.wrQLenPdf::42                      0                       # What write queue length does an incoming req see
system.mem_ctrls.wrQLenPdf::43                      0                       # What write queue length does an incoming req see
system.mem_ctrls.wrQLenPdf::44                      0                       # What write queue length does an incoming req see
system.mem_ctrls.wrQLenPdf::45                      0                       # What write queue length does an incoming req see
system.mem_ctrls.wrQLenPdf::46                      0                       # What write queue length does an incoming req see
system.mem_ctrls.wrQLenPdf::47                      0                       # What write queue length does an incoming req see
system.mem_ctrls.wrQLenPdf::48                      0                       # What write queue length does an incoming req see
system.mem_ctrls.wrQLenPdf::49                      0                       # What write queue length does an incoming req see
system.mem_ctrls.wrQLenPdf::50                      0                       # What write queue length does an incoming req see
system.mem_ctrls.wrQLenPdf::51                      0                       # What write queue length does an incoming req see
system.mem_ctrls.wrQLenPdf::52                      0                       # What write queue length does an incoming req see
system.mem_ctrls.wrQLenPdf::53                      0                       # What write queue length does an incoming req see
system.mem_ctrls.wrQLenPdf::54                      0                       # What write queue length does an incoming req see
system.mem_ctrls.wrQLenPdf::55                      0                       # What write queue length does an incoming req see
system.mem_ctrls.wrQLenPdf::56                      0                       # What write queue length does an incoming req see
system.mem_ctrls.wrQLenPdf::57                      0                       # What write queue length does an incoming req see
system.mem_ctrls.wrQLenPdf::58                      0                       # What write queue length does an incoming req see
system.mem_ctrls.wrQLenPdf::59                      0                       # What write queue length does an incoming req see
system.mem_ctrls.wrQLenPdf::60                      0                       # What write queue length does an incoming req see
system.mem_ctrls.wrQLenPdf::61                      0                       # What write queue length does an incoming req see
system.mem_ctrls.wrQLenPdf::62                      0                       # What write queue length does an incoming req see
system.mem_ctrls.wrQLenPdf::63                      0                       # What write queue length does an incoming req see
system.mem_ctrls.bytesPerActivate::samples          614                       # Bytes accessed per row activation
system.mem_ctrls.bytesPerActivate::mean    289.771987                       # Bytes accessed per row activation
system.mem_ctrls.bytesPerActivate::gmean   190.887224                       # Bytes accessed per row activation
system.mem_ctrls.bytesPerActivate::stdev   277.119441                       # Bytes accessed per row activation
system.mem_ctrls.bytesPerActivate::0-127          182     29.64%     29.64% # Bytes accessed per row activation
system.mem_ctrls.bytesPerActivate::128-255          164     26.71%     56.35% # Bytes accessed per row activation
system.mem_ctrls.bytesPerActivate::256-383          103     16.78%     73.13% # Bytes accessed per row activation
system.mem_ctrls.bytesPerActivate::384-511           46      7.49%     80.62% # Bytes accessed per row activation
system.mem_ctrls.bytesPerActivate::512-639           35      5.70%     86.32% # Bytes accessed per row activation
system.mem_ctrls.bytesPerActivate::640-767           25      4.07%     90.39% # Bytes accessed per row activation
system.mem_ctrls.bytesPerActivate::768-895           11      1.79%     92.18% # Bytes accessed per row activation
system.mem_ctrls.bytesPerActivate::896-1023            9      1.47%     93.65% # Bytes accessed per row activation
system.mem_ctrls.bytesPerActivate::1024-1151           39      6.35%    100.00% # Bytes accessed per row activation
system.mem_ctrls.bytesPerActivate::total          614                       # Bytes accessed per row activation
system.mem_ctrls.rdPerTurnAround::samples            7                       # Reads before turning the bus around for writes
system.mem_ctrls.rdPerTurnAround::mean     380.142857                       # Reads before turning the bus around for writes
system.mem_ctrls.rdPerTurnAround::gmean    199.115188                       # Reads before turning the bus around for writes
system.mem_ctrls.rdPerTurnAround::stdev    619.118036                       # Reads before turning the bus around for writes
system.mem_ctrls.rdPerTurnAround::64-127            2     28.57%     28.57% # Reads before turning the bus around for writes
system.mem_ctrls.rdPerTurnAround::128-191            3     42.86%     71.43% # Reads before turning the bus around for writes
system.mem_ctrls.rdPerTurnAround::192-255            1     14.29%     85.71% # Reads before turning the bus around for writes
system.mem_ctrls.rdPerTurnAround::1728-1791            1     14.29%    100.00% # Reads before turning the bus around for writes
system.mem_ctrls.rdPerTurnAround::total             7                       # Reads before turning the bus around for writes
system.mem_ctrls.wrPerTurnAround::samples            7                       # Writes before turning the bus around for reads
system.mem_ctrls.wrPerTurnAround::mean      16.285714                       # Writes before turning the bus around for reads
system.mem_ctrls.wrPerTurnAround::gmean     16.271496                       # Writes before turning the bus around for reads
system.mem_ctrls.wrPerTurnAround::stdev      0.755929                       # Writes before turning the bus around for reads
system.mem_ctrls.wrPerTurnAround::16                6     85.71%     85.71% # Writes before turning the bus around for reads
system.mem_ctrls.wrPerTurnAround::18                1     14.29%    100.00% # Writes before turning the bus around for reads
system.mem_ctrls.wrPerTurnAround::total             7                       # Writes before turning the bus around for reads
system.mem_ctrls.totQLat                     29565750                       # Total ticks spent queuing
system.mem_ctrls.totMemAccLat                80622000                       # Total ticks spent from burst creation until serviced by the DRAM
system.mem_ctrls.totBusLat                   13615000                       # Total ticks spent in databus transfers
system.mem_ctrls.avgQLat                     10857.79                       # Average queueing delay per DRAM burst
system.mem_ctrls.avgBusLat                    5000.00                       # Average bus latency per DRAM burst
system.mem_ctrls.avgMemAccLat                29607.79                       # Average memory access latency per DRAM burst
system.mem_ctrls.avgRdBW                       277.17                       # Average DRAM read bandwidth in MiByte/s
system.mem_ctrls.avgWrBW                        11.60                       # Average achieved write bandwidth in MiByte/s
system.mem_ctrls.avgRdBWSys                    351.57                       # Average system read bandwidth in MiByte/s
system.mem_ctrls.avgWrBWSys                     65.55                       # Average system write bandwidth in MiByte/s
system.mem_ctrls.peakBW                      12800.00                       # Theoretical peak bandwidth in MiByte/s
system.mem_ctrls.busUtil                         2.26                       # Data bus utilization in percentage
system.mem_ctrls.busUtilRead                     2.17                       # Data bus utilization in percentage for reads
system.mem_ctrls.busUtilWrite                    0.09                       # Data bus utilization in percentage for writes
system.mem_ctrls.avgRdQLen                       1.27                       # Average read queue length when enqueuing
system.mem_ctrls.avgWrQLen                      29.83                       # Average write queue length when enqueuing
system.mem_ctrls.readRowHits                     2101                       # Number of row buffer hits during reads
system.mem_ctrls.writeRowHits                     110                       # Number of row buffer hits during writes
system.mem_ctrls.readRowHitRate                 77.16                       # Row buffer hit rate for reads
system.mem_ctrls.writeRowHitRate                77.46                       # Row buffer hit rate for writes
system.mem_ctrls.avgGap                     153425.70                       # Average gap between requests
system.mem_ctrls.pageHitRate                    77.17                       # Row buffer hit rate, read and write combined
system.mem_ctrls_0.actEnergy                  3250800                       # Energy for activate commands per rank (pJ)
system.mem_ctrls_0.preEnergy                  1773750                       # Energy for precharge commands per rank (pJ)
system.mem_ctrls_0.readEnergy                13431600                       # Energy for read commands per rank (pJ)
system.mem_ctrls_0.writeEnergy                 628560                       # Energy for write commands per rank (pJ)
system.mem_ctrls_0.refreshEnergy             40684800                       # Energy for refresh commands per rank (pJ)
system.mem_ctrls_0.actBackEnergy            103142070                       # Energy for active background per rank (pJ)
system.mem_ctrls_0.preBackEnergy            283437750                       # Energy for precharge background per rank (pJ)
system.mem_ctrls_0.totalEnergy              446349330                       # Total energy per rank (pJ)
system.mem_ctrls_0.averagePower            716.234576                       # Core power per rank (mW)
system.mem_ctrls_0.memoryStateTime::IDLE    471003000                       # Time in different power states
system.mem_ctrls_0.memoryStateTime::REF      20800000                       # Time in different power states
system.mem_ctrls_0.memoryStateTime::PRE_PDN            0                       # Time in different power states
system.mem_ctrls_0.memoryStateTime::ACT     131399000                       # Time in different power states
system.mem_ctrls_0.memoryStateTime::ACT_PDN            0                       # Time in different power states
system.mem_ctrls_1.actEnergy                  1285200                       # Energy for activate commands per rank (pJ)
system.mem_ctrls_1.preEnergy                   701250                       # Energy for precharge commands per rank (pJ)
system.mem_ctrls_1.readEnergy                 6723600                       # Energy for read commands per rank (pJ)
system.mem_ctrls_1.writeEnergy                   6480                       # Energy for write commands per rank (pJ)
system.mem_ctrls_1.refreshEnergy             40684800                       # Energy for refresh commands per rank (pJ)
system.mem_ctrls_1.actBackEnergy            101444895                       # Energy for active background per rank (pJ)
system.mem_ctrls_1.preBackEnergy            284909250                       # Energy for precharge background per rank (pJ)
system.mem_ctrls_1.totalEnergy              435755475                       # Total energy per rank (pJ)
system.mem_ctrls_1.averagePower            699.267403                       # Core power per rank (mW)
system.mem_ctrls_1.memoryStateTime::IDLE    473543000                       # Time in different power states
system.mem_ctrls_1.memoryStateTime::REF      20800000                       # Time in different power states
system.mem_ctrls_1.memoryStateTime::PRE_PDN            0                       # Time in different power states
system.mem_ctrls_1.memoryStateTime::ACT     128935000                       # Time in different power states
system.mem_ctrls_1.memoryStateTime::ACT_PDN            0                       # Time in different power states
system.cpu.branchPred.lookups                  271161                       # Number of BP lookups
system.cpu.branchPred.condPredicted            223176                       # Number of conditional branches predicted
system.cpu.branchPred.condIncorrect              8281                       # Number of conditional branches incorrect
system.cpu.branchPred.BTBLookups               222796                       # Number of BTB lookups
system.cpu.branchPred.BTBHits                  221662                       # Number of BTB hits
system.cpu.branchPred.BTBCorrect                    0                       # Number of correct BTB predictions (this stat may not work properly.
system.cpu.branchPred.BTBHitPct             99.491014                       # BTB Hit Percentage
system.cpu.branchPred.usedRAS                   22800                       # Number of times the RAS was used to get a target.
system.cpu.branchPred.RASInCorrect                103                       # Number of incorrect RAS predictions.
system.cpu_voltage_domain.voltage                   1                       # Voltage in Volts
system.cpu_clk_domain.clock                       500                       # Clock period in ticks
system.cpu.dstage2_mmu.stage2_tlb.walker.walks            0                       # Table walker walks requested
system.cpu.dstage2_mmu.stage2_tlb.walker.walkRequestOrigin_Requested::Data            0                       # Table walker requests started/completed, data/inst
system.cpu.dstage2_mmu.stage2_tlb.walker.walkRequestOrigin_Requested::Inst            0                       # Table walker requests started/completed, data/inst
system.cpu.dstage2_mmu.stage2_tlb.walker.walkRequestOrigin_Requested::total            0                       # Table walker requests started/completed, data/inst
system.cpu.dstage2_mmu.stage2_tlb.walker.walkRequestOrigin_Completed::Data            0                       # Table walker requests started/completed, data/inst
system.cpu.dstage2_mmu.stage2_tlb.walker.walkRequestOrigin_Completed::Inst            0                       # Table walker requests started/completed, data/inst
system.cpu.dstage2_mmu.stage2_tlb.walker.walkRequestOrigin_Completed::total            0                       # Table walker requests started/completed, data/inst
system.cpu.dstage2_mmu.stage2_tlb.walker.walkRequestOrigin::total            0                       # Table walker requests started/completed, data/inst
system.cpu.dstage2_mmu.stage2_tlb.inst_hits            0                       # ITB inst hits
system.cpu.dstage2_mmu.stage2_tlb.inst_misses            0                       # ITB inst misses
system.cpu.dstage2_mmu.stage2_tlb.read_hits            0                       # DTB read hits
system.cpu.dstage2_mmu.stage2_tlb.read_misses            0                       # DTB read misses
system.cpu.dstage2_mmu.stage2_tlb.write_hits            0                       # DTB write hits
system.cpu.dstage2_mmu.stage2_tlb.write_misses            0                       # DTB write misses
system.cpu.dstage2_mmu.stage2_tlb.flush_tlb            0                       # Number of times complete TLB was flushed
system.cpu.dstage2_mmu.stage2_tlb.flush_tlb_mva            0                       # Number of times TLB was flushed by MVA
system.cpu.dstage2_mmu.stage2_tlb.flush_tlb_mva_asid            0                       # Number of times TLB was flushed by MVA & ASID
system.cpu.dstage2_mmu.stage2_tlb.flush_tlb_asid            0                       # Number of times TLB was flushed by ASID
system.cpu.dstage2_mmu.stage2_tlb.flush_entries            0                       # Number of entries that have been flushed from TLB
system.cpu.dstage2_mmu.stage2_tlb.align_faults            0                       # Number of TLB faults due to alignment restrictions
system.cpu.dstage2_mmu.stage2_tlb.prefetch_faults            0                       # Number of TLB faults due to prefetch
system.cpu.dstage2_mmu.stage2_tlb.domain_faults            0                       # Number of TLB faults due to domain restrictions
system.cpu.dstage2_mmu.stage2_tlb.perms_faults            0                       # Number of TLB faults due to permissions restrictions
system.cpu.dstage2_mmu.stage2_tlb.read_accesses            0                       # DTB read accesses
system.cpu.dstage2_mmu.stage2_tlb.write_accesses            0                       # DTB write accesses
system.cpu.dstage2_mmu.stage2_tlb.inst_accesses            0                       # ITB inst accesses
system.cpu.dstage2_mmu.stage2_tlb.hits              0                       # DTB hits
system.cpu.dstage2_mmu.stage2_tlb.misses            0                       # DTB misses
system.cpu.dstage2_mmu.stage2_tlb.accesses            0                       # DTB accesses
system.cpu.dtb.walker.walks                         0                       # Table walker walks requested
system.cpu.dtb.walker.walkRequestOrigin_Requested::Data            0                       # Table walker requests started/completed, data/inst
system.cpu.dtb.walker.walkRequestOrigin_Requested::Inst            0                       # Table walker requests started/completed, data/inst
system.cpu.dtb.walker.walkRequestOrigin_Requested::total            0                       # Table walker requests started/completed, data/inst
system.cpu.dtb.walker.walkRequestOrigin_Completed::Data            0                       # Table walker requests started/completed, data/inst
system.cpu.dtb.walker.walkRequestOrigin_Completed::Inst            0                       # Table walker requests started/completed, data/inst
system.cpu.dtb.walker.walkRequestOrigin_Completed::total            0                       # Table walker requests started/completed, data/inst
system.cpu.dtb.walker.walkRequestOrigin::total            0                       # Table walker requests started/completed, data/inst
system.cpu.dtb.inst_hits                            0                       # ITB inst hits
system.cpu.dtb.inst_misses                          0                       # ITB inst misses
system.cpu.dtb.read_hits                            0                       # DTB read hits
system.cpu.dtb.read_misses                          0                       # DTB read misses
system.cpu.dtb.write_hits                           0                       # DTB write hits
system.cpu.dtb.write_misses                         0                       # DTB write misses
system.cpu.dtb.flush_tlb                            0                       # Number of times complete TLB was flushed
system.cpu.dtb.flush_tlb_mva                        0                       # Number of times TLB was flushed by MVA
system.cpu.dtb.flush_tlb_mva_asid                   0                       # Number of times TLB was flushed by MVA & ASID
system.cpu.dtb.flush_tlb_asid                       0                       # Number of times TLB was flushed by ASID
system.cpu.dtb.flush_entries                        0                       # Number of entries that have been flushed from TLB
system.cpu.dtb.align_faults                         0                       # Number of TLB faults due to alignment restrictions
system.cpu.dtb.prefetch_faults                      0                       # Number of TLB faults due to prefetch
system.cpu.dtb.domain_faults                        0                       # Number of TLB faults due to domain restrictions
system.cpu.dtb.perms_faults                         0                       # Number of TLB faults due to permissions restrictions
system.cpu.dtb.read_accesses                        0                       # DTB read accesses
system.cpu.dtb.write_accesses                       0                       # DTB write accesses
system.cpu.dtb.inst_accesses                        0                       # ITB inst accesses
system.cpu.dtb.hits                                 0                       # DTB hits
system.cpu.dtb.misses                               0                       # DTB misses
system.cpu.dtb.accesses                             0                       # DTB accesses
system.cpu.istage2_mmu.stage2_tlb.walker.walks            0                       # Table walker walks requested
system.cpu.istage2_mmu.stage2_tlb.walker.walkRequestOrigin_Requested::Data            0                       # Table walker requests started/completed, data/inst
system.cpu.istage2_mmu.stage2_tlb.walker.walkRequestOrigin_Requested::Inst            0                       # Table walker requests started/completed, data/inst
system.cpu.istage2_mmu.stage2_tlb.walker.walkRequestOrigin_Requested::total            0                       # Table walker requests started/completed, data/inst
system.cpu.istage2_mmu.stage2_tlb.walker.walkRequestOrigin_Completed::Data            0                       # Table walker requests started/completed, data/inst
system.cpu.istage2_mmu.stage2_tlb.walker.walkRequestOrigin_Completed::Inst            0                       # Table walker requests started/completed, data/inst
system.cpu.istage2_mmu.stage2_tlb.walker.walkRequestOrigin_Completed::total            0                       # Table walker requests started/completed, data/inst
system.cpu.istage2_mmu.stage2_tlb.walker.walkRequestOrigin::total            0                       # Table walker requests started/completed, data/inst
system.cpu.istage2_mmu.stage2_tlb.inst_hits            0                       # ITB inst hits
system.cpu.istage2_mmu.stage2_tlb.inst_misses            0                       # ITB inst misses
system.cpu.istage2_mmu.stage2_tlb.read_hits            0                       # DTB read hits
system.cpu.istage2_mmu.stage2_tlb.read_misses            0                       # DTB read misses
system.cpu.istage2_mmu.stage2_tlb.write_hits            0                       # DTB write hits
system.cpu.istage2_mmu.stage2_tlb.write_misses            0                       # DTB write misses
system.cpu.istage2_mmu.stage2_tlb.flush_tlb            0                       # Number of times complete TLB was flushed
system.cpu.istage2_mmu.stage2_tlb.flush_tlb_mva            0                       # Number of times TLB was flushed by MVA
system.cpu.istage2_mmu.stage2_tlb.flush_tlb_mva_asid            0                       # Number of times TLB was flushed by MVA & ASID
system.cpu.istage2_mmu.stage2_tlb.flush_tlb_asid            0                       # Number of times TLB was flushed by ASID
system.cpu.istage2_mmu.stage2_tlb.flush_entries            0                       # Number of entries that have been flushed from TLB
system.cpu.istage2_mmu.stage2_tlb.align_faults            0                       # Number of TLB faults due to alignment restrictions
system.cpu.istage2_mmu.stage2_tlb.prefetch_faults            0                       # Number of TLB faults due to prefetch
system.cpu.istage2_mmu.stage2_tlb.domain_faults            0                       # Number of TLB faults due to domain restrictions
system.cpu.istage2_mmu.stage2_tlb.perms_faults            0                       # Number of TLB faults due to permissions restrictions
system.cpu.istage2_mmu.stage2_tlb.read_accesses            0                       # DTB read accesses
system.cpu.istage2_mmu.stage2_tlb.write_accesses            0                       # DTB write accesses
system.cpu.istage2_mmu.stage2_tlb.inst_accesses            0                       # ITB inst accesses
system.cpu.istage2_mmu.stage2_tlb.hits              0                       # DTB hits
system.cpu.istage2_mmu.stage2_tlb.misses            0                       # DTB misses
system.cpu.istage2_mmu.stage2_tlb.accesses            0                       # DTB accesses
system.cpu.itb.walker.walks                         0                       # Table walker walks requested
system.cpu.itb.walker.walkRequestOrigin_Requested::Data            0                       # Table walker requests started/completed, data/inst
system.cpu.itb.walker.walkRequestOrigin_Requested::Inst            0                       # Table walker requests started/completed, data/inst
system.cpu.itb.walker.walkRequestOrigin_Requested::total            0                       # Table walker requests started/completed, data/inst
system.cpu.itb.walker.walkRequestOrigin_Completed::Data            0                       # Table walker requests started/completed, data/inst
system.cpu.itb.walker.walkRequestOrigin_Completed::Inst            0                       # Table walker requests started/completed, data/inst
system.cpu.itb.walker.walkRequestOrigin_Completed::total            0                       # Table walker requests started/completed, data/inst
system.cpu.itb.walker.walkRequestOrigin::total            0                       # Table walker requests started/completed, data/inst
system.cpu.itb.inst_hits                            0                       # ITB inst hits
system.cpu.itb.inst_misses                          0                       # ITB inst misses
system.cpu.itb.read_hits                            0                       # DTB read hits
system.cpu.itb.read_misses                          0                       # DTB read misses
system.cpu.itb.write_hits                           0                       # DTB write hits
system.cpu.itb.write_misses                         0                       # DTB write misses
system.cpu.itb.flush_tlb                            0                       # Number of times complete TLB was flushed
system.cpu.itb.flush_tlb_mva                        0                       # Number of times TLB was flushed by MVA
system.cpu.itb.flush_tlb_mva_asid                   0                       # Number of times TLB was flushed by MVA & ASID
system.cpu.itb.flush_tlb_asid                       0                       # Number of times TLB was flushed by ASID
system.cpu.itb.flush_entries                        0                       # Number of entries that have been flushed from TLB
system.cpu.itb.align_faults                         0                       # Number of TLB faults due to alignment restrictions
system.cpu.itb.prefetch_faults                      0                       # Number of TLB faults due to prefetch
system.cpu.itb.domain_faults                        0                       # Number of TLB faults due to domain restrictions
system.cpu.itb.perms_faults                         0                       # Number of TLB faults due to permissions restrictions
system.cpu.itb.read_accesses                        0                       # DTB read accesses
system.cpu.itb.write_accesses                       0                       # DTB write accesses
system.cpu.itb.inst_accesses                        0                       # ITB inst accesses
system.cpu.itb.hits                                 0                       # DTB hits
system.cpu.itb.misses                               0                       # DTB misses
system.cpu.itb.accesses                             0                       # DTB accesses
system.cpu.workload.num_syscalls                   36                       # Number of system calls
system.cpu.numCycles                          1257532                       # number of cpu cycles simulated
system.cpu.numWorkItemsStarted                      0                       # number of work items this cpu started
system.cpu.numWorkItemsCompleted                    0                       # number of work items this cpu completed
system.cpu.fetch.icacheStallCycles              42835                       # Number of cycles fetch is stalled on an Icache miss
system.cpu.fetch.Insts                        1955227                       # Number of instructions fetch has processed
system.cpu.fetch.Branches                      271161                       # Number of branches that fetch encountered
system.cpu.fetch.predictedBranches             244462                       # Number of branches that fetch has predicted taken
system.cpu.fetch.Cycles                       1116680                       # Number of cycles fetch has run and was not squashing or blocked
system.cpu.fetch.SquashCycles                   16719                       # Number of cycles fetch has spent squashing
system.cpu.fetch.MiscStallCycles                  479                       # Number of cycles fetch has spent waiting on interrupts, or bad addresses, or out of MSHRs
system.cpu.fetch.PendingTrapStallCycles           401                       # Number of stall cycles due to pending traps
system.cpu.fetch.IcacheWaitRetryStallCycles         1189                       # Number of stall cycles due to full MSHR
system.cpu.fetch.CacheLines                    757174                       # Number of cache lines fetched
system.cpu.fetch.IcacheSquashes                   641                       # Number of outstanding Icache misses that were squashed
system.cpu.fetch.rateDist::samples            1169943                       # Number of instructions fetched each cycle (Total)
system.cpu.fetch.rateDist::mean              1.715284                       # Number of instructions fetched each cycle (Total)
system.cpu.fetch.rateDist::stdev             1.039280                       # Number of instructions fetched each cycle (Total)
system.cpu.fetch.rateDist::underflows               0      0.00%      0.00% # Number of instructions fetched each cycle (Total)
system.cpu.fetch.rateDist::0                   102623      8.77%      8.77% # Number of instructions fetched each cycle (Total)
system.cpu.fetch.rateDist::1                   537931     45.98%     54.75% # Number of instructions fetched each cycle (Total)
system.cpu.fetch.rateDist::2                   119314     10.20%     64.95% # Number of instructions fetched each cycle (Total)
system.cpu.fetch.rateDist::3                   410075     35.05%    100.00% # Number of instructions fetched each cycle (Total)
system.cpu.fetch.rateDist::overflows                0      0.00%    100.00% # Number of instructions fetched each cycle (Total)
system.cpu.fetch.rateDist::min_value                0                       # Number of instructions fetched each cycle (Total)
system.cpu.fetch.rateDist::max_value                3                       # Number of instructions fetched each cycle (Total)
system.cpu.fetch.rateDist::total              1169943                       # Number of instructions fetched each cycle (Total)
system.cpu.fetch.branchRate                  0.215630                       # Number of branch fetches per cycle
system.cpu.fetch.rate                        1.554813                       # Number of inst fetches per cycle
system.cpu.decode.IdleCycles                    44396                       # Number of cycles decode is idle
system.cpu.decode.BlockedCycles                 67668                       # Number of cycles decode is blocked
system.cpu.decode.RunCycles                   1047725                       # Number of cycles decode is running
system.cpu.decode.UnblockCycles                  2233                       # Number of cycles decode is unblocking
system.cpu.decode.SquashCycles                   7921                       # Number of cycles decode is squashing
system.cpu.decode.BranchResolved                 2490                       # Number of times decode resolved a branch
system.cpu.decode.BranchMispred                   462                       # Number of times decode detected a branch misprediction
system.cpu.decode.DecodedInsts                1940198                       # Number of instructions handled by decode
system.cpu.decode.SquashedInsts                 31034                       # Number of squashed instructions handled by decode
system.cpu.rename.SquashCycles                   7921                       # Number of cycles rename is squashing
system.cpu.rename.IdleCycles                    68485                       # Number of cycles rename is idle
system.cpu.rename.BlockCycles                   45436                       # Number of cycles rename is blocking
system.cpu.rename.serializeStallCycles          14325                       # count of cycles rename stalled for serializing inst
system.cpu.rename.RunCycles                   1025565                       # Number of cycles rename is running
system.cpu.rename.UnblockCycles                  8211                       # Number of cycles rename is unblocking
system.cpu.rename.RenamedInsts                1912257                       # Number of instructions processed by rename
system.cpu.rename.SquashedInsts                 11672                       # Number of squashed instructions processed by rename
system.cpu.rename.ROBFullEvents                  2389                       # Number of times rename has blocked due to ROB full
system.cpu.rename.IQFullEvents                    392                       # Number of times rename has blocked due to IQ full
system.cpu.rename.LQFullEvents                     89                       # Number of times rename has blocked due to LQ full
system.cpu.rename.SQFullEvents                   5740                       # Number of times rename has blocked due to SQ full
system.cpu.rename.RenamedOperands             2479117                       # Number of destination operands rename has renamed
system.cpu.rename.RenameLookups               8097561                       # Number of register rename lookups that rename has made
system.cpu.rename.int_rename_lookups          2188993                       # Number of integer rename lookups
system.cpu.rename.fp_rename_lookups                16                       # Number of floating rename lookups
system.cpu.rename.CommittedMaps               2376380                       # Number of HB maps that are committed
system.cpu.rename.UndoneMaps                   102737                       # Number of HB maps that are undone due to squashing
system.cpu.rename.serializingInsts                131                       # count of serializing insts renamed
system.cpu.rename.tempSerializingInsts            133                       # count of temporary serializing insts renamed
system.cpu.rename.skidInsts                      5960                       # count of insts added to the skid buffer
system.cpu.memDep0.insertedLoads               139456                       # Number of loads inserted to the mem dependence unit.
system.cpu.memDep0.insertedStores               27425                       # Number of stores inserted to the mem dependence unit.
system.cpu.memDep0.conflictingLoads              3154                       # Number of conflicting loads.
system.cpu.memDep0.conflictingStores              891                       # Number of conflicting stores.
system.cpu.iq.iqInstsAdded                    1903339                       # Number of instructions added to the IQ (excludes non-spec)
system.cpu.iq.iqNonSpecInstsAdded                 174                       # Number of non-speculative instructions added to the IQ
system.cpu.iq.iqInstsIssued                   1880869                       # Number of instructions issued
system.cpu.iq.iqSquashedInstsIssued              3946                       # Number of squashed instructions issued
system.cpu.iq.iqSquashedInstsExamined           67795                       # Number of squashed instructions iterated over during squash; mainly for profiling
system.cpu.iq.iqSquashedOperandsExamined       114260                       # Number of squashed operands that are examined and possibly removed from graph
system.cpu.iq.iqSquashedNonSpecRemoved             35                       # Number of squashed non-spec instructions that were removed
system.cpu.iq.issued_per_cycle::samples       1169943                       # Number of insts issued each cycle
system.cpu.iq.issued_per_cycle::mean         1.607659                       # Number of insts issued each cycle
system.cpu.iq.issued_per_cycle::stdev        0.761869                       # Number of insts issued each cycle
system.cpu.iq.issued_per_cycle::underflows            0      0.00%      0.00% # Number of insts issued each cycle
system.cpu.iq.issued_per_cycle::0              150912     12.90%     12.90% # Number of insts issued each cycle
system.cpu.iq.issued_per_cycle::1              205899     17.60%     30.50% # Number of insts issued each cycle
system.cpu.iq.issued_per_cycle::2              764888     65.38%     95.88% # Number of insts issued each cycle
system.cpu.iq.issued_per_cycle::3               47782      4.08%     99.96% # Number of insts issued each cycle
system.cpu.iq.issued_per_cycle::4                 462      0.04%    100.00% # Number of insts issued each cycle
system.cpu.iq.issued_per_cycle::5                   0      0.00%    100.00% # Number of insts issued each cycle
system.cpu.iq.issued_per_cycle::6                   0      0.00%    100.00% # Number of insts issued each cycle
system.cpu.iq.issued_per_cycle::7                   0      0.00%    100.00% # Number of insts issued each cycle
system.cpu.iq.issued_per_cycle::8                   0      0.00%    100.00% # Number of insts issued each cycle
system.cpu.iq.issued_per_cycle::overflows            0      0.00%    100.00% # Number of insts issued each cycle
system.cpu.iq.issued_per_cycle::min_value            0                       # Number of insts issued each cycle
system.cpu.iq.issued_per_cycle::max_value            4                       # Number of insts issued each cycle
system.cpu.iq.issued_per_cycle::total         1169943                       # Number of insts issued each cycle
system.cpu.iq.fu_full::No_OpClass                   0      0.00%      0.00% # attempts to use FU when none available
system.cpu.iq.fu_full::IntAlu                  206830     72.43%     72.43% # attempts to use FU when none available
system.cpu.iq.fu_full::IntMult                      0      0.00%     72.43% # attempts to use FU when none available
system.cpu.iq.fu_full::IntDiv                       0      0.00%     72.43% # attempts to use FU when none available
system.cpu.iq.fu_full::FloatAdd                     0      0.00%     72.43% # attempts to use FU when none available
system.cpu.iq.fu_full::FloatCmp                     0      0.00%     72.43% # attempts to use FU when none available
system.cpu.iq.fu_full::FloatCvt                     0      0.00%     72.43% # attempts to use FU when none available
system.cpu.iq.fu_full::FloatMult                    0      0.00%     72.43% # attempts to use FU when none available
system.cpu.iq.fu_full::FloatDiv                     0      0.00%     72.43% # attempts to use FU when none available
system.cpu.iq.fu_full::FloatSqrt                    0      0.00%     72.43% # attempts to use FU when none available
system.cpu.iq.fu_full::SimdAdd                      0      0.00%     72.43% # attempts to use FU when none available
system.cpu.iq.fu_full::SimdAddAcc                   0      0.00%     72.43% # attempts to use FU when none available
system.cpu.iq.fu_full::SimdAlu                      0      0.00%     72.43% # attempts to use FU when none available
system.cpu.iq.fu_full::SimdCmp                      0      0.00%     72.43% # attempts to use FU when none available
system.cpu.iq.fu_full::SimdCvt                      0      0.00%     72.43% # attempts to use FU when none available
system.cpu.iq.fu_full::SimdMisc                     0      0.00%     72.43% # attempts to use FU when none available
system.cpu.iq.fu_full::SimdMult                     0      0.00%     72.43% # attempts to use FU when none available
system.cpu.iq.fu_full::SimdMultAcc                  0      0.00%     72.43% # attempts to use FU when none available
system.cpu.iq.fu_full::SimdShift                    0      0.00%     72.43% # attempts to use FU when none available
system.cpu.iq.fu_full::SimdShiftAcc                 0      0.00%     72.43% # attempts to use FU when none available
system.cpu.iq.fu_full::SimdSqrt                     0      0.00%     72.43% # attempts to use FU when none available
system.cpu.iq.fu_full::SimdFloatAdd                 0      0.00%     72.43% # attempts to use FU when none available
system.cpu.iq.fu_full::SimdFloatAlu                 0      0.00%     72.43% # attempts to use FU when none available
system.cpu.iq.fu_full::SimdFloatCmp                 0      0.00%     72.43% # attempts to use FU when none available
system.cpu.iq.fu_full::SimdFloatCvt                 0      0.00%     72.43% # attempts to use FU when none available
system.cpu.iq.fu_full::SimdFloatDiv                 0      0.00%     72.43% # attempts to use FU when none available
system.cpu.iq.fu_full::SimdFloatMisc                0      0.00%     72.43% # attempts to use FU when none available
system.cpu.iq.fu_full::SimdFloatMult                0      0.00%     72.43% # attempts to use FU when none available
system.cpu.iq.fu_full::SimdFloatMultAcc             0      0.00%     72.43% # attempts to use FU when none available
system.cpu.iq.fu_full::SimdFloatSqrt                0      0.00%     72.43% # attempts to use FU when none available
system.cpu.iq.fu_full::MemRead                  69560     24.36%     96.79% # attempts to use FU when none available
system.cpu.iq.fu_full::MemWrite                  9164      3.21%    100.00% # attempts to use FU when none available
system.cpu.iq.fu_full::IprAccess                    0      0.00%    100.00% # attempts to use FU when none available
system.cpu.iq.fu_full::InstPrefetch                 0      0.00%    100.00% # attempts to use FU when none available
system.cpu.iq.FU_type_0::No_OpClass                 0      0.00%      0.00% # Type of FU issued
system.cpu.iq.FU_type_0::IntAlu               1715813     91.22%     91.22% # Type of FU issued
system.cpu.iq.FU_type_0::IntMult                  108      0.01%     91.23% # Type of FU issued
system.cpu.iq.FU_type_0::IntDiv                     0      0.00%     91.23% # Type of FU issued
system.cpu.iq.FU_type_0::FloatAdd                   0      0.00%     91.23% # Type of FU issued
system.cpu.iq.FU_type_0::FloatCmp                   0      0.00%     91.23% # Type of FU issued
system.cpu.iq.FU_type_0::FloatCvt                   0      0.00%     91.23% # Type of FU issued
system.cpu.iq.FU_type_0::FloatMult                  0      0.00%     91.23% # Type of FU issued
system.cpu.iq.FU_type_0::FloatDiv                   0      0.00%     91.23% # Type of FU issued
system.cpu.iq.FU_type_0::FloatSqrt                  0      0.00%     91.23% # Type of FU issued
system.cpu.iq.FU_type_0::SimdAdd                    0      0.00%     91.23% # Type of FU issued
system.cpu.iq.FU_type_0::SimdAddAcc                 0      0.00%     91.23% # Type of FU issued
system.cpu.iq.FU_type_0::SimdAlu                    0      0.00%     91.23% # Type of FU issued
system.cpu.iq.FU_type_0::SimdCmp                    0      0.00%     91.23% # Type of FU issued
system.cpu.iq.FU_type_0::SimdCvt                    0      0.00%     91.23% # Type of FU issued
system.cpu.iq.FU_type_0::SimdMisc                   0      0.00%     91.23% # Type of FU issued
system.cpu.iq.FU_type_0::SimdMult                   0      0.00%     91.23% # Type of FU issued
system.cpu.iq.FU_type_0::SimdMultAcc                0      0.00%     91.23% # Type of FU issued
system.cpu.iq.FU_type_0::SimdShift                  0      0.00%     91.23% # Type of FU issued
system.cpu.iq.FU_type_0::SimdShiftAcc               0      0.00%     91.23% # Type of FU issued
system.cpu.iq.FU_type_0::SimdSqrt                   0      0.00%     91.23% # Type of FU issued
system.cpu.iq.FU_type_0::SimdFloatAdd               0      0.00%     91.23% # Type of FU issued
system.cpu.iq.FU_type_0::SimdFloatAlu               0      0.00%     91.23% # Type of FU issued
system.cpu.iq.FU_type_0::SimdFloatCmp               0      0.00%     91.23% # Type of FU issued
system.cpu.iq.FU_type_0::SimdFloatCvt               0      0.00%     91.23% # Type of FU issued
system.cpu.iq.FU_type_0::SimdFloatDiv               0      0.00%     91.23% # Type of FU issued
system.cpu.iq.FU_type_0::SimdFloatMisc              7      0.00%     91.23% # Type of FU issued
system.cpu.iq.FU_type_0::SimdFloatMult              0      0.00%     91.23% # Type of FU issued
system.cpu.iq.FU_type_0::SimdFloatMultAcc            0      0.00%     91.23% # Type of FU issued
system.cpu.iq.FU_type_0::SimdFloatSqrt              0      0.00%     91.23% # Type of FU issued
system.cpu.iq.FU_type_0::MemRead               138605      7.37%     98.60% # Type of FU issued
system.cpu.iq.FU_type_0::MemWrite               26336      1.40%    100.00% # Type of FU issued
system.cpu.iq.FU_type_0::IprAccess                  0      0.00%    100.00% # Type of FU issued
system.cpu.iq.FU_type_0::InstPrefetch               0      0.00%    100.00% # Type of FU issued
system.cpu.iq.FU_type_0::total                1880869                       # Type of FU issued
system.cpu.iq.rate                           1.495683                       # Inst issue rate
system.cpu.iq.fu_busy_cnt                      285554                       # FU busy when requested
system.cpu.iq.fu_busy_rate                   0.151820                       # FU busy rate (busy events/executed inst)
system.cpu.iq.int_inst_queue_reads            5221137                       # Number of integer instruction queue reads
system.cpu.iq.int_inst_queue_writes           1971339                       # Number of integer instruction queue writes
system.cpu.iq.int_inst_queue_wakeup_accesses      1865030                       # Number of integer instruction queue wakeup accesses
system.cpu.iq.fp_inst_queue_reads                  44                       # Number of floating instruction queue reads
system.cpu.iq.fp_inst_queue_writes                 16                       # Number of floating instruction queue writes
system.cpu.iq.fp_inst_queue_wakeup_accesses           16                       # Number of floating instruction queue wakeup accesses
system.cpu.iq.int_alu_accesses                2166395                       # Number of integer alu accesses
system.cpu.iq.fp_alu_accesses                      28                       # Number of floating point alu accesses
system.cpu.iew.lsq.thread0.forwLoads             3235                       # Number of loads that had data forwarded from stores
system.cpu.iew.lsq.thread0.invAddrLoads             0                       # Number of loads ignored due to an invalid address
system.cpu.iew.lsq.thread0.squashedLoads         4218                       # Number of loads squashed
system.cpu.iew.lsq.thread0.ignoredResponses            6                       # Number of memory responses ignored because the instruction is squashed
system.cpu.iew.lsq.thread0.memOrderViolation           47                       # Number of memory ordering violations
system.cpu.iew.lsq.thread0.squashedStores         2433                       # Number of stores squashed
system.cpu.iew.lsq.thread0.invAddrSwpfs             0                       # Number of software prefetches ignored due to an invalid address
system.cpu.iew.lsq.thread0.blockedLoads             0                       # Number of blocked loads due to partial load-store forwarding
system.cpu.iew.lsq.thread0.rescheduledLoads          145                       # Number of loads that were rescheduled
system.cpu.iew.lsq.thread0.cacheBlocked           125                       # Number of times an access to memory failed due to the cache being blocked
system.cpu.iew.iewIdleCycles                        0                       # Number of cycles IEW is idle
system.cpu.iew.iewSquashCycles                   7921                       # Number of cycles IEW is squashing
system.cpu.iew.iewBlockCycles                    5291                       # Number of cycles IEW is blocking
system.cpu.iew.iewUnblockCycles                   702                       # Number of cycles IEW is unblocking
system.cpu.iew.iewDispatchedInsts             1903523                       # Number of instructions dispatched to IQ
system.cpu.iew.iewDispSquashedInsts                 0                       # Number of squashed instructions skipped by dispatch
system.cpu.iew.iewDispLoadInsts                139456                       # Number of dispatched load instructions
system.cpu.iew.iewDispStoreInsts                27425                       # Number of dispatched store instructions
system.cpu.iew.iewDispNonSpecInsts                121                       # Number of dispatched non-speculative instructions
system.cpu.iew.iewIQFullEvents                     88                       # Number of times the IQ has become full, causing a stall
system.cpu.iew.iewLSQFullEvents                   571                       # Number of times the LSQ has become full, causing a stall
system.cpu.iew.memOrderViolationEvents             47                       # Number of memory order violations
system.cpu.iew.predictedTakenIncorrect           6284                       # Number of branches that were predicted taken incorrectly
system.cpu.iew.predictedNotTakenIncorrect         1670                       # Number of branches that were predicted not taken incorrectly
system.cpu.iew.branchMispredicts                 7954                       # Number of branch mispredicts detected at execute
system.cpu.iew.iewExecutedInsts               1866264                       # Number of executed instructions
system.cpu.iew.iewExecLoadInsts                137689                       # Number of load instructions executed
system.cpu.iew.iewExecSquashedInsts             14605                       # Number of squashed instructions skipped in execute
system.cpu.iew.exec_swp                             0                       # number of swp insts executed
system.cpu.iew.exec_nop                            10                       # number of nop insts executed
system.cpu.iew.exec_refs                       163609                       # number of memory reference insts executed
system.cpu.iew.exec_branches                   248268                       # Number of branches executed
system.cpu.iew.exec_stores                      25920                       # Number of stores executed
system.cpu.iew.exec_rate                     1.484069                       # Inst execution rate
system.cpu.iew.wb_sent                        1865196                       # cumulative count of insts sent to commit
system.cpu.iew.wb_count                       1865046                       # cumulative count of insts written-back
system.cpu.iew.wb_producers                   1333391                       # num instructions producing a value
system.cpu.iew.wb_consumers                   2164563                       # num instructions consuming a value
system.cpu.iew.wb_penalized                         0                       # number of instrctions required to write to 'other' IQ
system.cpu.iew.wb_rate                       1.483100                       # insts written-back per cycle
system.cpu.iew.wb_fanout                     0.616009                       # average fanout of values written-back
system.cpu.iew.wb_penalized_rate                    0                       # fraction of instructions written-back that wrote to 'other' IQ
system.cpu.commit.commitSquashedInsts           47118                       # The number of squashed insts skipped by commit
system.cpu.commit.commitNonSpecStalls             139                       # The number of times commit has been forced to stall to communicate backwards
system.cpu.commit.branchMispredicts              7843                       # The number of times a branch was mispredicted
system.cpu.commit.committed_per_cycle::samples      1160660                       # Number of insts commited each cycle
system.cpu.commit.committed_per_cycle::mean     1.581616                       # Number of insts commited each cycle
system.cpu.commit.committed_per_cycle::stdev     1.285457                       # Number of insts commited each cycle
system.cpu.commit.committed_per_cycle::underflows            0      0.00%      0.00% # Number of insts commited each cycle
system.cpu.commit.committed_per_cycle::0       248780     21.43%     21.43% # Number of insts commited each cycle
system.cpu.commit.committed_per_cycle::1       368279     31.73%     53.16% # Number of insts commited each cycle
system.cpu.commit.committed_per_cycle::2       270455     23.30%     76.47% # Number of insts commited each cycle
system.cpu.commit.committed_per_cycle::3       218186     18.80%     95.26% # Number of insts commited each cycle
system.cpu.commit.committed_per_cycle::4        22404      1.93%     97.20% # Number of insts commited each cycle
system.cpu.commit.committed_per_cycle::5        21653      1.87%     99.06% # Number of insts commited each cycle
system.cpu.commit.committed_per_cycle::6         3464      0.30%     99.36% # Number of insts commited each cycle
system.cpu.commit.committed_per_cycle::7         6206      0.53%     99.89% # Number of insts commited each cycle
system.cpu.commit.committed_per_cycle::8         1233      0.11%    100.00% # Number of insts commited each cycle
system.cpu.commit.committed_per_cycle::overflows            0      0.00%    100.00% # Number of insts commited each cycle
system.cpu.commit.committed_per_cycle::min_value            0                       # Number of insts commited each cycle
system.cpu.commit.committed_per_cycle::max_value            8                       # Number of insts commited each cycle
system.cpu.commit.committed_per_cycle::total      1160660                       # Number of insts commited each cycle
system.cpu.commit.committedInsts              1791787                       # Number of instructions committed
system.cpu.commit.committedOps                1835718                       # Number of ops (including micro ops) committed
system.cpu.commit.swp_count                         0                       # Number of s/w prefetches committed
system.cpu.commit.refs                         160230                       # Number of memory references committed
system.cpu.commit.loads                        135238                       # Number of loads committed
system.cpu.commit.membars                          50                       # Number of memory barriers committed
system.cpu.commit.branches                     246630                       # Number of branches committed
system.cpu.commit.fp_insts                         16                       # Number of committed floating point instructions.
system.cpu.commit.int_insts                   1633213                       # Number of committed integer instructions.
system.cpu.commit.function_calls                21875                       # Number of function calls committed.
system.cpu.commit.op_class_0::No_OpClass            0      0.00%      0.00% # Class of committed instruction
system.cpu.commit.op_class_0::IntAlu          1675373     91.27%     91.27% # Class of committed instruction
system.cpu.commit.op_class_0::IntMult             108      0.01%     91.27% # Class of committed instruction
system.cpu.commit.op_class_0::IntDiv                0      0.00%     91.27% # Class of committed instruction
system.cpu.commit.op_class_0::FloatAdd              0      0.00%     91.27% # Class of committed instruction
system.cpu.commit.op_class_0::FloatCmp              0      0.00%     91.27% # Class of committed instruction
system.cpu.commit.op_class_0::FloatCvt              0      0.00%     91.27% # Class of committed instruction
system.cpu.commit.op_class_0::FloatMult             0      0.00%     91.27% # Class of committed instruction
system.cpu.commit.op_class_0::FloatDiv              0      0.00%     91.27% # Class of committed instruction
system.cpu.commit.op_class_0::FloatSqrt             0      0.00%     91.27% # Class of committed instruction
system.cpu.commit.op_class_0::SimdAdd               0      0.00%     91.27% # Class of committed instruction
system.cpu.commit.op_class_0::SimdAddAcc            0      0.00%     91.27% # Class of committed instruction
system.cpu.commit.op_class_0::SimdAlu               0      0.00%     91.27% # Class of committed instruction
system.cpu.commit.op_class_0::SimdCmp               0      0.00%     91.27% # Class of committed instruction
system.cpu.commit.op_class_0::SimdCvt               0      0.00%     91.27% # Class of committed instruction
system.cpu.commit.op_class_0::SimdMisc              0      0.00%     91.27% # Class of committed instruction
system.cpu.commit.op_class_0::SimdMult              0      0.00%     91.27% # Class of committed instruction
system.cpu.commit.op_class_0::SimdMultAcc            0      0.00%     91.27% # Class of committed instruction
system.cpu.commit.op_class_0::SimdShift             0      0.00%     91.27% # Class of committed instruction
system.cpu.commit.op_class_0::SimdShiftAcc            0      0.00%     91.27% # Class of committed instruction
system.cpu.commit.op_class_0::SimdSqrt              0      0.00%     91.27% # Class of committed instruction
system.cpu.commit.op_class_0::SimdFloatAdd            0      0.00%     91.27% # Class of committed instruction
system.cpu.commit.op_class_0::SimdFloatAlu            0      0.00%     91.27% # Class of committed instruction
system.cpu.commit.op_class_0::SimdFloatCmp            0      0.00%     91.27% # Class of committed instruction
system.cpu.commit.op_class_0::SimdFloatCvt            0      0.00%     91.27% # Class of committed instruction
system.cpu.commit.op_class_0::SimdFloatDiv            0      0.00%     91.27% # Class of committed instruction
system.cpu.commit.op_class_0::SimdFloatMisc            7      0.00%     91.27% # Class of committed instruction
system.cpu.commit.op_class_0::SimdFloatMult            0      0.00%     91.27% # Class of committed instruction
system.cpu.commit.op_class_0::SimdFloatMultAcc            0      0.00%     91.27% # Class of committed instruction
system.cpu.commit.op_class_0::SimdFloatSqrt            0      0.00%     91.27% # Class of committed instruction
system.cpu.commit.op_class_0::MemRead          135238      7.37%     98.64% # Class of committed instruction
system.cpu.commit.op_class_0::MemWrite          24992      1.36%    100.00% # Class of committed instruction
system.cpu.commit.op_class_0::IprAccess             0      0.00%    100.00% # Class of committed instruction
system.cpu.commit.op_class_0::InstPrefetch            0      0.00%    100.00% # Class of committed instruction
system.cpu.commit.op_class_0::total           1835718                       # Class of committed instruction
system.cpu.commit.bw_lim_events                  1233                       # number cycles where commit BW limit reached
system.cpu.rob.rob_reads                      3041808                       # The number of ROB reads
system.cpu.rob.rob_writes                     3774960                       # The number of ROB writes
system.cpu.timesIdled                            1440                       # Number of times that the entire CPU went into an idle state and unscheduled itself
system.cpu.idleCycles                           87589                       # Total number of cycles that the CPU has spent unscheduled due to idling
system.cpu.committedInsts                     1791787                       # Number of Instructions Simulated
[...]
system.cpu.dcache.WriteReq_mshr_hits::total          959                       # number of WriteReq MSHR hits
system.cpu.dcache.LoadLockedReq_mshr_hits::cpu.data           12                       # number of LoadLockedReq MSHR hits
system.cpu.dcache.LoadLockedReq_mshr_hits::total           12                       # number of LoadLockedReq MSHR hits
system.cpu.dcache.demand_mshr_hits::cpu.data         2054                       # number of demand (read+write) MSHR hits
system.cpu.dcache.demand_mshr_hits::total         2054                       # number of demand (read+write) MSHR hits
system.cpu.dcache.overall_mshr_hits::cpu.data         2054                       # number of overall MSHR hits
system.cpu.dcache.overall_mshr_hits::total         2054                       # number of overall MSHR hits
system.cpu.dcache.ReadReq_mshr_misses::cpu.data         1680                       # number of ReadReq MSHR misses
system.cpu.dcache.ReadReq_mshr_misses::total         1680                       # number of ReadReq MSHR misses
system.cpu.dcache.WriteReq_mshr_misses::cpu.data          396                       # number of WriteReq MSHR misses
system.cpu.dcache.WriteReq_mshr_misses::total          396                       # number of WriteReq MSHR misses
system.cpu.dcache.LoadLockedReq_mshr_misses::cpu.data            2                       # number of LoadLockedReq MSHR misses
system.cpu.dcache.LoadLockedReq_mshr_misses::total            2                       # number of LoadLockedReq MSHR misses
system.cpu.dcache.demand_mshr_misses::cpu.data         2076                       # number of demand (read+write) MSHR misses
system.cpu.dcache.demand_mshr_misses::total         2076                       # number of demand (read+write) MSHR misses
system.cpu.dcache.overall_mshr_misses::cpu.data         2076                       # number of overall MSHR misses
system.cpu.dcache.overall_mshr_misses::total         2076                       # number of overall MSHR misses
system.cpu.dcache.ReadReq_mshr_miss_latency::cpu.data     83419250                       # number of ReadReq MSHR miss cycles
system.cpu.dcache.ReadReq_mshr_miss_latency::total     83419250                       # number of ReadReq MSHR miss cycles
system.cpu.dcache.WriteReq_mshr_miss_latency::cpu.data     11058498                       # number of WriteReq MSHR miss cycles
system.cpu.dcache.WriteReq_mshr_miss_latency::total     11058498                       # number of WriteReq MSHR miss cycles
system.cpu.dcache.LoadLockedReq_mshr_miss_latency::cpu.data        36000                       # number of LoadLockedReq MSHR miss cycles
system.cpu.dcache.LoadLockedReq_mshr_miss_latency::total        36000                       # number of LoadLockedReq MSHR miss cycles
system.cpu.dcache.demand_mshr_miss_latency::cpu.data     94477748                       # number of demand (read+write) MSHR miss cycles
system.cpu.dcache.demand_mshr_miss_latency::total     94477748                       # number of demand (read+write) MSHR miss cycles
system.cpu.dcache.overall_mshr_miss_latency::cpu.data     94477748                       # number of overall MSHR miss cycles
system.cpu.dcache.overall_mshr_miss_latency::total     94477748                       # number of overall MSHR miss cycles
system.cpu.dcache.ReadReq_mshr_miss_rate::cpu.data     0.012544                       # mshr miss rate for ReadReq accesses
system.cpu.dcache.ReadReq_mshr_miss_rate::total     0.012544                       # mshr miss rate for ReadReq accesses
system.cpu.dcache.WriteReq_mshr_miss_rate::cpu.data     0.016091                       # mshr miss rate for WriteReq accesses
system.cpu.dcache.WriteReq_mshr_miss_rate::total     0.016091                       # mshr miss rate for WriteReq accesses
system.cpu.dcache.LoadLockedReq_mshr_miss_rate::cpu.data     0.037037                       # mshr miss rate for LoadLockedReq accesses
system.cpu.dcache.LoadLockedReq_mshr_miss_rate::total     0.037037                       # mshr miss rate for LoadLockedReq accesses
system.cpu.dcache.demand_mshr_miss_rate::cpu.data     0.013095                       # mshr miss rate for demand accesses
system.cpu.dcache.demand_mshr_miss_rate::total     0.013095                       # mshr miss rate for demand accesses
system.cpu.dcache.overall_mshr_miss_rate::cpu.data     0.013095                       # mshr miss rate for overall accesses
system.cpu.dcache.overall_mshr_miss_rate::total     0.013095                       # mshr miss rate for overall accesses
system.cpu.dcache.ReadReq_avg_mshr_miss_latency::cpu.data 49654.315476                       # average ReadReq mshr miss latency
system.cpu.dcache.ReadReq_avg_mshr_miss_latency::total 49654.315476                       # average ReadReq mshr miss latency
system.cpu.dcache.WriteReq_avg_mshr_miss_latency::cpu.data 27925.500000                       # average WriteReq mshr miss latency
system.cpu.dcache.WriteReq_avg_mshr_miss_latency::total 27925.500000                       # average WriteReq mshr miss latency
system.cpu.dcache.LoadLockedReq_avg_mshr_miss_latency::cpu.data        18000                       # average LoadLockedReq mshr miss latency
system.cpu.dcache.LoadLockedReq_avg_mshr_miss_latency::total        18000                       # average LoadLockedReq mshr miss latency
system.cpu.dcache.demand_avg_mshr_miss_latency::cpu.data 45509.512524                       # average overall mshr miss latency
system.cpu.dcache.demand_avg_mshr_miss_latency::total 45509.512524                       # average overall mshr miss latency
system.cpu.dcache.overall_avg_mshr_miss_latency::cpu.data 45509.512524                       # average overall mshr miss latency
system.cpu.dcache.overall_avg_mshr_miss_latency::total 45509.512524                       # average overall mshr miss latency
system.cpu.dcache.no_allocate_misses                0                       # Number of misses that were no-allocate
system.cpu.icache.tags.replacements               946                       # number of replacements
system.cpu.icache.tags.tagsinuse           385.162914                       # Cycle average of tags in use
system.cpu.icache.tags.total_refs              755560                       # Total number of references to valid blocks.
system.cpu.icache.tags.sampled_refs              1376                       # Sample count of references to valid blocks.
system.cpu.icache.tags.avg_refs            549.098837                       # Average number of references to valid blocks.
system.cpu.icache.tags.warmup_cycle                 0                       # Cycle when the warmup percentage was hit.
system.cpu.icache.tags.occ_blocks::cpu.inst   385.162914                       # Average occupied blocks per requestor
system.cpu.icache.tags.occ_percent::cpu.inst     0.752271                       # Average percentage of cache occupancy
system.cpu.icache.tags.occ_percent::total     0.752271                       # Average percentage of cache occupancy
system.cpu.icache.tags.occ_task_id_blocks::1024          430                       # Occupied blocks per task id
system.cpu.icache.tags.age_task_id_blocks_1024::0           84                       # Occupied blocks per task id
system.cpu.icache.tags.age_task_id_blocks_1024::1           25                       # Occupied blocks per task id
system.cpu.icache.tags.age_task_id_blocks_1024::2          321                       # Occupied blocks per task id
system.cpu.icache.tags.occ_task_id_percent::1024     0.839844                       # Percentage of cache occupancy per task id
system.cpu.icache.tags.tag_accesses           1515706                       # Number of tag accesses
system.cpu.icache.tags.data_accesses          1515706                       # Number of data accesses
system.cpu.icache.ReadReq_hits::cpu.inst       755560                       # number of ReadReq hits
system.cpu.icache.ReadReq_hits::total          755560                       # number of ReadReq hits
system.cpu.icache.demand_hits::cpu.inst        755560                       # number of demand (read+write) hits
system.cpu.icache.demand_hits::total           755560                       # number of demand (read+write) hits
system.cpu.icache.overall_hits::cpu.inst       755560                       # number of overall hits
system.cpu.icache.overall_hits::total          755560                       # number of overall hits
system.cpu.icache.ReadReq_misses::cpu.inst         1605                       # number of ReadReq misses
system.cpu.icache.ReadReq_misses::total          1605                       # number of ReadReq misses
system.cpu.icache.demand_misses::cpu.inst         1605                       # number of demand (read+write) misses
system.cpu.icache.demand_misses::total           1605                       # number of demand (read+write) misses
system.cpu.icache.overall_misses::cpu.inst         1605                       # number of overall misses
system.cpu.icache.overall_misses::total          1605                       # number of overall misses
system.cpu.icache.ReadReq_miss_latency::cpu.inst     89507220                       # number of ReadReq miss cycles
system.cpu.icache.ReadReq_miss_latency::total     89507220                       # number of ReadReq miss cycles
system.cpu.icache.demand_miss_latency::cpu.inst     89507220                       # number of demand (read+write) miss cycles
system.cpu.icache.demand_miss_latency::total     89507220                       # number of demand (read+write) miss cycles
system.cpu.icache.overall_miss_latency::cpu.inst     89507220                       # number of overall miss cycles
system.cpu.icache.overall_miss_latency::total     89507220                       # number of overall miss cycles
system.cpu.icache.ReadReq_accesses::cpu.inst       757165                       # number of ReadReq accesses(hits+misses)
system.cpu.icache.ReadReq_accesses::total       757165                       # number of ReadReq accesses(hits+misses)
system.cpu.icache.demand_accesses::cpu.inst       757165                       # number of demand (read+write) accesses
system.cpu.icache.demand_accesses::total       757165                       # number of demand (read+write) accesses
system.cpu.icache.overall_accesses::cpu.inst       757165                       # number of overall (read+write) accesses
system.cpu.icache.overall_accesses::total       757165                       # number of overall (read+write) accesses
system.cpu.icache.ReadReq_miss_rate::cpu.inst     0.002120                       # miss rate for ReadReq accesses
system.cpu.icache.ReadReq_miss_rate::total     0.002120                       # miss rate for ReadReq accesses
system.cpu.icache.demand_miss_rate::cpu.inst     0.002120                       # miss rate for demand accesses
system.cpu.icache.demand_miss_rate::total     0.002120                       # miss rate for demand accesses
system.cpu.icache.overall_miss_rate::cpu.inst     0.002120                       # miss rate for overall accesses
system.cpu.icache.overall_miss_rate::total     0.002120                       # miss rate for overall accesses
system.cpu.icache.ReadReq_avg_miss_latency::cpu.inst 55767.738318                       # average ReadReq miss latency
system.cpu.icache.ReadReq_avg_miss_latency::total 55767.738318                       # average ReadReq miss latency
system.cpu.icache.demand_avg_miss_latency::cpu.inst 55767.738318                       # average overall miss latency
system.cpu.icache.demand_avg_miss_latency::total 55767.738318                       # average overall miss latency
system.cpu.icache.overall_avg_miss_latency::cpu.inst 55767.738318                       # average overall miss latency
system.cpu.icache.overall_avg_miss_latency::total 55767.738318                       # average overall miss latency
system.cpu.icache.blocked_cycles::no_mshrs        21441                       # number of cycles access was blocked
system.cpu.icache.blocked_cycles::no_targets            0                       # number of cycles access was blocked
system.cpu.icache.blocked::no_mshrs               278                       # number of cycles access was blocked
system.cpu.icache.blocked::no_targets               0                       # number of cycles access was blocked
system.cpu.icache.avg_blocked_cycles::no_mshrs    77.125899                       # average number of cycles each access was blocked
system.cpu.icache.avg_blocked_cycles::no_targets          nan                       # average number of cycles each access was blocked
system.cpu.icache.fast_writes                       0                       # number of fast writes performed
system.cpu.icache.cache_copies                      0                       # number of cache copies performed
system.cpu.icache.ReadReq_mshr_hits::cpu.inst          229                       # number of ReadReq MSHR hits
system.cpu.icache.ReadReq_mshr_hits::total          229                       # number of ReadReq MSHR hits
system.cpu.icache.demand_mshr_hits::cpu.inst          229                       # number of demand (read+write) MSHR hits
system.cpu.icache.demand_mshr_hits::total          229                       # number of demand (read+write) MSHR hits
system.cpu.icache.overall_mshr_hits::cpu.inst          229                       # number of overall MSHR hits
system.cpu.icache.overall_mshr_hits::total          229                       # number of overall MSHR hits
system.cpu.icache.ReadReq_mshr_misses::cpu.inst         1376                       # number of ReadReq MSHR misses
system.cpu.icache.ReadReq_mshr_misses::total         1376                       # number of ReadReq MSHR misses
system.cpu.icache.demand_mshr_misses::cpu.inst         1376                       # number of demand (read+write) MSHR misses
system.cpu.icache.demand_mshr_misses::total         1376                       # number of demand (read+write) MSHR misses
system.cpu.icache.overall_mshr_misses::cpu.inst         1376                       # number of overall MSHR misses
system.cpu.icache.overall_mshr_misses::total         1376                       # number of overall MSHR misses
system.cpu.icache.ReadReq_mshr_miss_latency::cpu.inst     76772226                       # number of ReadReq MSHR miss cycles
system.cpu.icache.ReadReq_mshr_miss_latency::total     76772226                       # number of ReadReq MSHR miss cycles
system.cpu.icache.demand_mshr_miss_latency::cpu.inst     76772226                       # number of demand (read+write) MSHR miss cycles
system.cpu.icache.demand_mshr_miss_latency::total     76772226                       # number of demand (read+write) MSHR miss cycles
system.cpu.icache.overall_mshr_miss_latency::cpu.inst     76772226                       # number of overall MSHR miss cycles
system.cpu.icache.overall_mshr_miss_latency::total     76772226                       # number of overall MSHR miss cycles
system.cpu.icache.ReadReq_mshr_miss_rate::cpu.inst     0.001817                       # mshr miss rate for ReadReq accesses
system.cpu.icache.ReadReq_mshr_miss_rate::total     0.001817                       # mshr miss rate for ReadReq accesses
system.cpu.icache.demand_mshr_miss_rate::cpu.inst     0.001817                       # mshr miss rate for demand accesses
system.cpu.icache.demand_mshr_miss_rate::total     0.001817                       # mshr miss rate for demand accesses
system.cpu.icache.overall_mshr_miss_rate::cpu.inst     0.001817                       # mshr miss rate for overall accesses
system.cpu.icache.overall_mshr_miss_rate::total     0.001817                       # mshr miss rate for overall accesses
system.cpu.icache.ReadReq_avg_mshr_miss_latency::cpu.inst 55793.768895                       # average ReadReq mshr miss latency
system.cpu.icache.ReadReq_avg_mshr_miss_latency::total 55793.768895                       # average ReadReq mshr miss latency
system.cpu.icache.demand_avg_mshr_miss_latency::cpu.inst 55793.768895                       # average overall mshr miss latency
system.cpu.icache.demand_avg_mshr_miss_latency::total 55793.768895                       # average overall mshr miss latency
system.cpu.icache.overall_avg_mshr_miss_latency::cpu.inst 55793.768895                       # average overall mshr miss latency
system.cpu.icache.overall_avg_mshr_miss_latency::total 55793.768895                       # average overall mshr miss latency
system.cpu.icache.no_allocate_misses                0                       # Number of misses that were no-allocate
system.membus.trans_dist::ReadReq                3058                       # Transaction distribution
system.membus.trans_dist::ReadResp               3058                       # Transaction distribution
system.membus.trans_dist::Writeback               644                       # Transaction distribution
system.membus.trans_dist::ReadExReq               396                       # Transaction distribution
system.membus.trans_dist::ReadExResp              396                       # Transaction distribution
system.membus.pkt_count_system.cpu.icache.mem_side::system.mem_ctrls.port         2752                       # Packet count per connected master and slave (bytes)
system.membus.pkt_count_system.cpu.dcache.mem_side::system.mem_ctrls.port         4800                       # Packet count per connected master and slave (bytes)
system.membus.pkt_count::total                   7552                       # Packet count per connected master and slave (bytes)
system.membus.pkt_size_system.cpu.icache.mem_side::system.mem_ctrls.port        88064                       # Cumulative packet size per connected master and slave (bytes)
system.membus.pkt_size_system.cpu.dcache.mem_side::system.mem_ctrls.port       174208                       # Cumulative packet size per connected master and slave (bytes)
system.membus.pkt_size::total                  262272                       # Cumulative packet size per connected master and slave (bytes)
system.membus.snoops                                0                       # Total snoops (count)
system.membus.snoop_fanout::samples              4098                       # Request fanout histogram
system.membus.snoop_fanout::mean                    1                       # Request fanout histogram
system.membus.snoop_fanout::stdev                   0                       # Request fanout histogram
system.membus.snoop_fanout::underflows              0      0.00%      0.00% # Request fanout histogram
system.membus.snoop_fanout::0                       0      0.00%      0.00% # Request fanout histogram
system.membus.snoop_fanout::1                    4098    100.00%    100.00% # Request fanout histogram
system.membus.snoop_fanout::2                       0      0.00%    100.00% # Request fanout histogram
system.membus.snoop_fanout::overflows               0      0.00%    100.00% # Request fanout histogram
system.membus.snoop_fanout::min_value               1                       # Request fanout histogram
system.membus.snoop_fanout::max_value               1                       # Request fanout histogram
system.membus.snoop_fanout::total                4098                       # Request fanout histogram
system.membus.reqLayer0.occupancy             7484500                       # Layer occupancy (ticks)
system.membus.reqLayer0.utilization               1.2                       # Layer utilization (%)
system.membus.respLayer1.occupancy            7336749                       # Layer occupancy (ticks)
system.membus.respLayer1.utilization              1.2                       # Layer utilization (%)
system.membus.respLayer2.occupancy           10865750                       # Layer occupancy (ticks)
system.membus.respLayer2.utilization              1.7                       # Layer utilization (%)

---------- End Simulation Statistics   ----------
