
---------- Begin Simulation Statistics ----------
sim_seconds                                  0.000628                       # Number of seconds simulated
sim_ticks                                   627507500                       # Number of ticks simulated
final_tick                                  627507500                       # Number of ticks from beginning of simulation (restored from checkpoints and never reset)
sim_freq                                 1000000000000                       # Frequency of simulated ticks
host_inst_rate                                 334538                       # Simulator instruction rate (inst/s)
host_op_rate                                   342739                       # Simulator op (including micro ops) rate (op/s)
host_tick_rate                              117159455                       # Simulator tick rate (ticks/s)
host_mem_usage                                 643792                       # Number of bytes of host memory used
host_seconds                                     5.36                       # Real time elapsed on the host
sim_insts                                     1791782                       # Number of instructions simulated
sim_ops                                       1835713                       # Number of ops (including micro ops) simulated
system.voltage_domain.voltage                       1                       # Voltage in Volts
system.clk_domain.clock                          1000                       # Clock period in ticks
system.mem_ctrls.bytes_read::cpu.inst           88192                       # Number of bytes read from this memory
system.mem_ctrls.bytes_read::cpu.data          123200                       # Number of bytes read from this memory
system.mem_ctrls.bytes_read::total             211392                       # Number of bytes read from this memory
system.mem_ctrls.bytes_inst_read::cpu.inst        88192                       # Number of instructions bytes read from this memory
system.mem_ctrls.bytes_inst_read::total         88192                       # Number of instructions bytes read from this memory
system.mem_ctrls.bytes_written::writebacks        38784                       # Number of bytes written to this memory
system.mem_ctrls.bytes_written::total           38784                       # Number of bytes written to this memory
system.mem_ctrls.num_reads::cpu.inst             1378                       # Number of read requests responded to by this memory
system.mem_ctrls.num_reads::cpu.data             1925                       # Number of read requests responded to by this memory
system.mem_ctrls.num_reads::total                3303                       # Number of read requests responded to by this memory
system.mem_ctrls.num_writes::writebacks           606                       # Number of write requests responded to by this memory
system.mem_ctrls.num_writes::total                606                       # Number of write requests responded to by this memory
system.mem_ctrls.bw_read::cpu.inst          140543340                       # Total read bandwidth from this memory (bytes/s)
system.mem_ctrls.bw_read::cpu.data          196332315                       # Total read bandwidth from this memory (bytes/s)
system.mem_ctrls.bw_read::total             336875655                       # Total read bandwidth from this memory (bytes/s)
system.mem_ctrls.bw_inst_read::cpu.inst     140543340                       # Instruction read bandwidth from this memory (bytes/s)
system.mem_ctrls.bw_inst_read::total        140543340                       # Instruction read bandwidth from this memory (bytes/s)
system.mem_ctrls.bw_write::writebacks        61806433                       # Write bandwidth from this memory (bytes/s)
system.mem_ctrls.bw_write::total             61806433                       # Write bandwidth from this memory (bytes/s)
system.mem_ctrls.bw_total::writebacks        61806433                       # Total bandwidth to/from this memory (bytes/s)
system.mem_ctrls.bw_total::cpu.inst         140543340                       # Total bandwidth to/from this memory (bytes/s)
system.mem_ctrls.bw_total::cpu.data         196332315                       # Total bandwidth to/from this memory (bytes/s)
system.mem_ctrls.bw_total::total            398682087                       # Total bandwidth to/from this memory (bytes/s)
system.mem_ctrls.readReqs                        3304                       # Number of read requests accepted
system.mem_ctrls.writeReqs                        606                       # Number of write requests accepted
system.mem_ctrls.readBursts                      3304                       # Number of DRAM read bursts, including those serviced by the write queue
system.mem_ctrls.writeBursts                      606                       # Number of DRAM write bursts, including those merged in the write queue
system.mem_ctrls.bytesReadDRAM                 168832                       # Total number of bytes read from DRAM
system.mem_ctrls.bytesReadWrQ                   42624                       # Total number of bytes read from write queue
system.mem_ctrls.bytesWritten                    6144                       # Total number of bytes written to DRAM
system.mem_ctrls.bytesReadSys                  211456                       # Total read bytes from the system interface side
system.mem_ctrls.bytesWrittenSys                38784                       # Total written bytes from the system interface side
system.mem_ctrls.servicedByWrQ                    666                       # Number of DRAM read bursts serviced by the write queue
system.mem_ctrls.mergedWrBursts                   480                       # Number of DRAM write bursts merged with an existing one
system.mem_ctrls.neitherReadNorWriteReqs            0                       # Number of requests that are neither read nor write
system.mem_ctrls.perBankRdBursts::0               287                       # Per bank write bursts
system.mem_ctrls.perBankRdBursts::1                49                       # Per bank write bursts
system.mem_ctrls.perBankRdBursts::2                70                       # Per bank write bursts
system.mem_ctrls.perBankRdBursts::3               118                       # Per bank write bursts
system.mem_ctrls.perBankRdBursts::4               435                       # Per bank write bursts
system.mem_ctrls.perBankRdBursts::5               207                       # Per bank write bursts
system.mem_ctrls.perBankRdBursts::6               450                       # Per bank write bursts
system.mem_ctrls.perBankRdBursts::7               174                       # Per bank write bursts
system.mem_ctrls.perBankRdBursts::8               248                       # Per bank write bursts
system.mem_ctrls.perBankRdBursts::9               143                       # Per bank write bursts
system.mem_ctrls.perBankRdBursts::10               77                       # Per bank write bursts
system.mem_ctrls.perBankRdBursts::11               35                       # Per bank write bursts
system.mem_ctrls.perBankRdBursts::12              195                       # Per bank write bursts
system.mem_ctrls.perBankRdBursts::13               34                       # Per bank write bursts
system.mem_ctrls.perBankRdBursts::14              105                       # Per bank write bursts
system.mem_ctrls.perBankRdBursts::15               11                       # Per bank write bursts
system.mem_ctrls.perBankWrBursts::0                 0                       # Per bank write bursts
system.mem_ctrls.perBankWrBursts::1                 0                       # Per bank write bursts
system.mem_ctrls.perBankWrBursts::2                 0                       # Per bank write bursts
system.mem_ctrls.perBankWrBursts::3                 0                       # Per bank write bursts
system.mem_ctrls.perBankWrBursts::4                40                       # Per bank write bursts
system.mem_ctrls.perBankWrBursts::5                34                       # Per bank write bursts
system.mem_ctrls.perBankWrBursts::6                16                       # Per bank write bursts
system.mem_ctrls.perBankWrBursts::7                 5                       # Per bank write bursts
system.mem_ctrls.perBankWrBursts::8                 1                       # Per bank write bursts
system.mem_ctrls.perBankWrBursts::9                 0                       # Per bank write bursts
system.mem_ctrls.perBankWrBursts::10                0                       # Per bank write bursts
system.mem_ctrls.perBankWrBursts::11                0                       # Per bank write bursts
system.mem_ctrls.perBankWrBursts::12                0                       # Per bank write bursts
system.mem_ctrls.perBankWrBursts::13                0                       # Per bank write bursts
system.mem_ctrls.perBankWrBursts::14                0                       # Per bank write bursts
system.mem_ctrls.perBankWrBursts::15                0                       # Per bank write bursts
system.mem_ctrls.numRdRetry                         0                       # Number of times read queue was full causing retry
system.mem_ctrls.numWrRetry                         0                       # Number of times write queue was full causing retry
system.mem_ctrls.totGap                     627498500                       # Total gap between requests
system.mem_ctrls.readPktSize::0                     0                       # Read request sizes (log2)
system.mem_ctrls.readPktSize::1                     0                       # Read request sizes (log2)
system.mem_ctrls.readPktSize::2                     0                       # Read request sizes (log2)
system.mem_ctrls.readPktSize::3                     0                       # Read request sizes (log2)
system.mem_ctrls.readPktSize::4                     0                       # Read request sizes (log2)
system.mem_ctrls.readPktSize::5                     0                       # Read request sizes (log2)
system.mem_ctrls.readPktSize::6                  3304                       # Read request sizes (log2)
system.mem_ctrls.writePktSize::0                    0                       # Write request sizes (log2)
system.mem_ctrls.writePktSize::1                    0                       # Write request sizes (log2)
system.mem_ctrls.writePktSize::2                    0                       # Write request sizes (log2)
system.mem_ctrls.writePktSize::3                    0                       # Write request sizes (log2)
system.mem_ctrls.writePktSize::4                    0                       # Write request sizes (log2)
system.mem_ctrls.writePktSize::5                    0                       # Write request sizes (log2)
system.mem_ctrls.writePktSize::6                  606                       # Write request sizes (log2)
system.mem_ctrls.rdQLenPdf::0                    1575                       # What read queue length does an incoming req see
system.mem_ctrls.rdQLenPdf::1                     745                       # What read queue length does an incoming req see
system.mem_ctrls.rdQLenPdf::2                     235                       # What read queue length does an incoming req see
system.mem_ctrls.rdQLenPdf::3                      67                       # What read queue length does an incoming req see
system.mem_ctrls.rdQLenPdf::4                      13                       # What read queue length does an incoming req see
system.mem_ctrls.rdQLenPdf::5                       3                       # What read queue length does an incoming req see
system.mem_ctrls.rdQLenPdf::6                       0                       # What read queue length does an incoming req see
system.mem_ctrls.rdQLenPdf::7                       0                       # What read queue length does an incoming req see
system.mem_ctrls.rdQLenPdf::8                       0                       # What read queue length does an incoming req see
system.mem_ctrls.rdQLenPdf::9                       0                       # What read queue length does an incoming req see
system.mem_ctrls.rdQLenPdf::10                      0                       # What read queue length does an incoming req see
system.mem_ctrls.rdQLenPdf::11                      0                       # What read queue length does an incoming req see
system.mem_ctrls.rdQLenPdf::12                      0                       # What read queue length does an incoming req see
system.mem_ctrls.rdQLenPdf::13                      0                       # What read queue length does an incoming req see
system.mem_ctrls.rdQLenPdf::14                      0                       # What read queue length does an incoming req see
system.mem_ctrls.rdQLenPdf::15                      0                       # What read queue length does an incoming req see
system.mem_ctrls.rdQLenPdf::16                      0                       # What read queue length does an incoming req see
system.mem_ctrls.rdQLenPdf::17                      0                       # What read queue length does an incoming req see
system.mem_ctrls.rdQLenPdf::18                      0                       # What read queue length does an incoming req see
system.mem_ctrls.rdQLenPdf::19                      0                       # What read queue length does an incoming req see
system.mem_ctrls.rdQLenPdf::20                      0                       # What read queue length does an incoming req see
system.mem_ctrls.rdQLenPdf::21                      0                       # What read queue length does an incoming req see
system.mem_ctrls.rdQLenPdf::22                      0                       # What read queue length does an incoming req see
system.mem_ctrls.rdQLenPdf::23                      0                       # What read queue length does an incoming req see
system.mem_ctrls.rdQLenPdf::24                      0                       # What read queue length does an incoming req see
system.mem_ctrls.rdQLenPdf::25                      0                       # What read queue length does an incoming req see
system.mem_ctrls.rdQLenPdf::26                      0                       # What read queue length does an incoming req see
system.mem_ctrls.rdQLenPdf::27                      0                       # What read queue length does an incoming req see
system.mem_ctrls.rdQLenPdf::28                      0                       # What read queue length does an incoming req see
system.mem_ctrls.rdQLenPdf::29                      0                       # What read queue length does an incoming req see
system.mem_ctrls.rdQLenPdf::30                      0                       # What read queue length does an incoming req see
system.mem_ctrls.rdQLenPdf::31                      0                       # What read queue length does an incoming req see
system.mem_ctrls.wrQLenPdf::0                       1                       # What write queue length does an incoming req see
system.mem_ctrls.wrQLenPdf::1                       1                       # What write queue length does an incoming req see
system.mem_ctrls.wrQLenPdf::2                       1                       # What write queue length does an incoming req see
system.mem_ctrls.wrQLenPdf::3                       1                       # What write queue length does an incoming req see
system.mem_ctrls.wrQLenPdf::4                       1                       # What write queue length does an incoming req see
system.mem_ctrls.wrQLenPdf::5                       1                       # What write queue length does an incoming req see
system.mem_ctrls.wrQLenPdf::6                       1                       # What write queue length does an incoming req see
system.mem_ctrls.wrQLenPdf::7                       1                       # What write queue length does an incoming req see
system.mem_ctrls.wrQLenPdf::8                       1                       # What write queue length does an incoming req see
system.mem_ctrls.wrQLenPdf::9                       1                       # What write queue length does an incoming req see
system.mem_ctrls.wrQLenPdf::10                      1                       # What write queue length does an incoming req see
system.mem_ctrls.wrQLenPdf::11                      1                       # What write queue length does an incoming req see
system.mem_ctrls.wrQLenPdf::12                      1                       # What write queue length does an incoming req see
system.mem_ctrls.wrQLenPdf::13                      1                       # What write queue length does an incoming req see
system.mem_ctrls.wrQLenPdf::14                      1                       # What write queue length does an incoming req see
system.mem_ctrls.wrQLenPdf::15                      1                       # What write queue length does an incoming req see
system.mem_ctrls.wrQLenPdf::16                      1                       # What write queue length does an incoming req see
system.mem_ctrls.wrQLenPdf::17                      7                       # What write queue length does an incoming req see
system.mem_ctrls.wrQLenPdf::18                      7                       # What write queue length does an incoming req see
system.mem_ctrls.wrQLenPdf::19                      7                       # What write queue length does an incoming req see
system.mem_ctrls.wrQLenPdf::20                      7                       # What write queue length does an incoming req see
system.mem_ctrls.wrQLenPdf::21                      7                       # What write queue length does an incoming req see
system.mem_ctrls.wrQLenPdf::22                      7                       # What write queue length does an incoming req see
system.mem_ctrls.wrQLenPdf::23                      7                       # What write queue length does an incoming req see
system.mem_ctrls.wrQLenPdf::24                      7                       # What write queue length does an incoming req see
system.mem_ctrls.wrQLenPdf::25                      7                       # What write queue length does an incoming req see
system.mem_ctrls.wrQLenPdf::26                      7                       # What write queue length does an incoming req see
system.mem_ctrls.wrQLenPdf::27                      7                       # What write queue length does an incoming req see
system.mem_ctrls.wrQLenPdf::28                      7                       # What write queue length does an incoming req see
system.mem_ctrls.wrQLenPdf::29                      7                       # What write queue length does an incoming req see
system.mem_ctrls.wrQLenPdf::30                      6                       # What write queue length does an incoming req see
system.mem_ctrls.wrQLenPdf::31                      6                       # What write queue length does an incoming req see
system.mem_ctrls.wrQLenPdf::32                      6                       # What write queue length does an incoming req see
system.mem_ctrls.wrQLenPdf::33                      0                       # What write queue length does an incoming req see
system.mem_ctrls.wrQLenPdf::34                      0                       # What write queue length does an incoming req see
system.mem_ctrls.wrQLenPdf::35                      0                       # What write queue length does an incoming req see
system.mem_ctrls.wrQLenPdf::36                      0                       # What write queue length does an incoming req see
system.mem_ctrls.wrQLenPdf::37                      0                       # What write queue length does an incoming req see
system.mem_ctrls.wrQLenPdf::38                      0                       # What write queue length does an incoming req see
system.mem_ctrls.wrQLenPdf::39                      0                       # What write queue length does an incoming req see
system.mem_ctrls.wrQLenPdf::40                      0                       # What write queue length does an incoming req see
system.mem_ctrls.wrQLenPdf::41                      0                       # What write queue length does an incoming req see
system.mem_ctrls.wrQLenPdf::42                      0                       # What write queue length does an incoming req see
system.mem_ctrls.wrQLenPdf::43                      0                       # What write queue length does an incoming req see
system.mem_ctrls.wrQLenPdf::44                      0                       # What write queue length does an incoming req see
system.mem_ctrls.wrQLenPdf::45                      0                       # What write queue length does an incoming req see
system.mem_ctrls.wrQLenPdf::46                      0                       # What write queue length does an incoming req see
system.mem_ctrls.wrQLenPdf::47                      0                       # What write queue length does an incoming req see
system.mem_ctrls.wrQLenPdf::48                      0                       # What write queue length does an incoming req see
system.mem_ctrls.wrQLenPdf::49                      0                       # What write queue length does an incoming req see
system.mem_ctrls.wrQLenPdf::50                      0                       # What write queue length does an incoming req see
system.mem_ctrls.wrQLenPdf::51                      0                       # What write queue length does an incoming req see
system.mem_ctrls.wrQLenPdf::52                      0                       # What write queue length does an incoming req see
system.mem_ctrls.wrQLenPdf::53                      0                       # What write queue length does an incoming req see
system.mem_ctrls.wrQLenPdf::54                      0                       # What write queue length does an incoming req see
system.mem_ctrls.wrQLenPdf::55                      0                       # What write queue length does an incoming req see
system.mem_ctrls.wrQLenPdf::56                      0                       # What write queue length does an incoming req see
system.mem_ctrls.wrQLenPdf::57                      0                       # What write queue length does an incoming req see
system.mem_ctrls.wrQLenPdf::58                      0                       # What write queue length does an incoming req see
system.mem_ctrls.wrQLenPdf::59                      0                       # What write queue length does an incoming req see
system.mem_ctrls.wrQLenPdf::60                      0                       # What write queue length does an incoming req see
system.mem_ctrls.wrQLenPdf::61                      0                       # What write queue length does an incoming req see
system.mem_ctrls.wrQLenPdf::62                      0                       # What write queue length does an incoming req see
system.mem_ctrls.wrQLenPdf::63                      0                       # What write queue length does an incoming req see
system.mem_ctrls.bytesPerActivate::samples          623                       # Bytes accessed per row activation
system.mem_ctrls.bytesPerActivate::mean    276.853933                       # Bytes accessed per row activation
system.mem_ctrls.bytesPerActivate::gmean   183.875848                       # Bytes accessed per row activation
system.mem_ctrls.bytesPerActivate::stdev   268.294535                       # Bytes accessed per row activation
system.mem_ctrls.bytesPerActivate::0-127          190     30.50%     30.50% # Bytes accessed per row activation
system.mem_ctrls.bytesPerActivate::128-255          172     27.61%     58.11% # Bytes accessed per row activation
system.mem_ctrls.bytesPerActivate::256-383          104     16.69%     74.80% # Bytes accessed per row activation
system.mem_ctrls.bytesPerActivate::384-511           51      8.19%     82.99% # Bytes accessed per row activation
system.mem_ctrls.bytesPerActivate::512-639           35      5.62%     88.60% # Bytes accessed per row activation
system.mem_ctrls.bytesPerActivate::640-767           13      2.09%     90.69% # Bytes accessed per row activation
system.mem_ctrls.bytesPerActivate::768-895           12      1.93%     92.62% # Bytes accessed per row activation
system.mem_ctrls.bytesPerActivate::896-1023            9      1.44%     94.06% # Bytes accessed per row activation
system.mem_ctrls.bytesPerActivate::1024-1151           37      5.94%    100.00% # Bytes accessed per row activation
system.mem_ctrls.bytesPerActivate::total          623                       # Bytes accessed per row activation
system.mem_ctrls.rdPerTurnAround::samples            6                       # Reads before turning the bus around for writes
system.mem_ctrls.rdPerTurnAround::mean     175.833333                       # Reads before turning the bus around for writes
system.mem_ctrls.rdPerTurnAround::gmean    160.624098                       # Reads before turning the bus around for writes
system.mem_ctrls.rdPerTurnAround::stdev     82.392759                       # Reads before turning the bus around for writes
system.mem_ctrls.rdPerTurnAround::96-111            2     33.33%     33.33% # Reads before turning the bus around for writes
system.mem_ctrls.rdPerTurnAround::112-127            1     16.67%     50.00% # Reads before turning the bus around for writes
system.mem_ctrls.rdPerTurnAround::176-191            1     16.67%     66.67% # Reads before turning the bus around for writes
system.mem_ctrls.rdPerTurnAround::224-239            1     16.67%     83.33% # Reads before turning the bus around for writes
system.mem_ctrls.rdPerTurnAround::288-303            1     16.67%    100.00% # Reads before turning the bus around for writes
system.mem_ctrls.rdPerTurnAround::total             6                       # Reads before turning the bus around for writes
system.mem_ctrls.wrPerTurnAround::samples            6                       # Writes before turning the bus around for reads
system.mem_ctrls.wrPerTurnAround::mean             16                       # Writes before turning the bus around for reads
system.mem_ctrls.wrPerTurnAround::gmean     16.000000                       # Writes before turning the bus around for reads
system.mem_ctrls.wrPerTurnAround::16                6    100.00%    100.00% # Writes before turning the bus around for reads
system.mem_ctrls.wrPerTurnAround::total             6                       # Writes before turning the bus around for reads
system.mem_ctrls.totQLat                     28623750                       # Total ticks spent queuing
system.mem_ctrls.totMemAccLat                78086250                       # Total ticks spent from burst creation until serviced by the DRAM
system.mem_ctrls.totBusLat                   13190000                       # Total ticks spent in databus transfers
system.mem_ctrls.avgQLat                     10850.55                       # Average queueing delay per DRAM burst
system.mem_ctrls.avgBusLat                    5000.00                       # Average bus latency per DRAM burst
system.mem_ctrls.avgMemAccLat                29600.55                       # Average memory access latency per DRAM burst
system.mem_ctrls.avgRdBW                       269.05                       # Average DRAM read bandwidth in MiByte/s
system.mem_ctrls.avgWrBW                         9.79                       # Average achieved write bandwidth in MiByte/s
system.mem_ctrls.avgRdBWSys                    336.98                       # Average system read bandwidth in MiByte/s
system.mem_ctrls.avgWrBWSys                     61.81                       # Average system write bandwidth in MiByte/s
system.mem_ctrls.peakBW                      12800.00                       # Theoretical peak bandwidth in MiByte/s
system.mem_ctrls.busUtil                         2.18                       # Data bus utilization in percentage
system.mem_ctrls.busUtilRead                     2.10                       # Data bus utilization in percentage for reads
system.mem_ctrls.busUtilWrite                    0.08                       # Data bus utilization in percentage for writes
system.mem_ctrls.avgRdQLen                       1.31                       # Average read queue length when enqueuing
system.mem_ctrls.avgWrQLen                      23.11                       # Average write queue length when enqueuing
system.mem_ctrls.readRowHits                     2007                       # Number of row buffer hits during reads
system.mem_ctrls.writeRowHits                      94                       # Number of row buffer hits during writes
system.mem_ctrls.readRowHitRate                 76.08                       # Row buffer hit rate for reads
system.mem_ctrls.writeRowHitRate                74.60                       # Row buffer hit rate for writes
system.mem_ctrls.avgGap                     160485.55                       # Average gap between requests
system.mem_ctrls.pageHitRate                    76.01                       # Row buffer hit rate, read and write combined
system.mem_ctrls_0.actEnergy                  3333960                       # Energy for activate commands per rank (pJ)
system.mem_ctrls_0.preEnergy                  1819125                       # Energy for precharge commands per rank (pJ)
system.mem_ctrls_0.readEnergy                13150800                       # Energy for read commands per rank (pJ)
system.mem_ctrls_0.writeEnergy                 615600                       # Energy for write commands per rank (pJ)
system.mem_ctrls_0.refreshEnergy             40684800                       # Energy for refresh commands per rank (pJ)
system.mem_ctrls_0.actBackEnergy            100188900                       # Energy for active background per rank (pJ)
system.mem_ctrls_0.preBackEnergy            286011000                       # Energy for precharge background per rank (pJ)
system.mem_ctrls_0.totalEnergy              445804185                       # Total energy per rank (pJ)
system.mem_ctrls_0.averagePower            715.392812                       # Core power per rank (mW)
system.mem_ctrls_0.memoryStateTime::IDLE    475196750                       # Time in different power states
system.mem_ctrls_0.memoryStateTime::REF      20800000                       # Time in different power states
system.mem_ctrls_0.memoryStateTime::PRE_PDN            0                       # Time in different power states
system.mem_ctrls_0.memoryStateTime::ACT     127177000                       # Time in different power states
system.mem_ctrls_0.memoryStateTime::ACT_PDN            0                       # Time in different power states
system.mem_ctrls_1.actEnergy                  1300320                       # Energy for activate commands per rank (pJ)
system.mem_ctrls_1.preEnergy                   709500                       # Energy for precharge commands per rank (pJ)
system.mem_ctrls_1.readEnergy                 6528600                       # Energy for read commands per rank (pJ)
system.mem_ctrls_1.writeEnergy                   6480                       # Energy for write commands per rank (pJ)
system.mem_ctrls_1.refreshEnergy             40684800                       # Energy for refresh commands per rank (pJ)
system.mem_ctrls_1.actBackEnergy             98780715                       # Energy for active background per rank (pJ)
system.mem_ctrls_1.preBackEnergy            287246250                       # Energy for precharge background per rank (pJ)
system.mem_ctrls_1.totalEnergy              435256665                       # Total energy per rank (pJ)
system.mem_ctrls_1.averagePower            698.466951                       # Core power per rank (mW)
system.mem_ctrls_1.memoryStateTime::IDLE    477503500                       # Time in different power states
system.mem_ctrls_1.memoryStateTime::REF      20800000                       # Time in different power states
system.mem_ctrls_1.memoryStateTime::PRE_PDN            0                       # Time in different power states
system.mem_ctrls_1.memoryStateTime::ACT     125027500                       # Time in different power states
system.mem_ctrls_1.memoryStateTime::ACT_PDN            0                       # Time in different power states
system.cpu.branchPred.lookups                  271070                       # Number of BP lookups
system.cpu.branchPred.condPredicted            223094                       # Number of conditional branches predicted
system.cpu.branchPred.condIncorrect              8264                       # Number of conditional branches incorrect
system.cpu.branchPred.BTBLookups               222781                       # Number of BTB lookups
system.cpu.branchPred.BTBHits                  221674                       # Number of BTB hits
system.cpu.branchPred.BTBCorrect                    0                       # Number of correct BTB predictions (this stat may not work properly.
system.cpu.branchPred.BTBHitPct             99.503099                       # BTB Hit Percentage
system.cpu.branchPred.usedRAS                   22802                       # Number of times the RAS was used to get a target.
system.cpu.branchPred.RASInCorrect                100                       # Number of incorrect RAS predictions.
system.cpu_voltage_domain.voltage                   1                       # Voltage in Volts
system.cpu_clk_domain.clock                       500                       # Clock period in ticks
system.cpu.dstage2_mmu.stage2_tlb.walker.walks            0                       # Table walker walks requested
system.cpu.dstage2_mmu.stage2_tlb.walker.walkRequestOrigin_Requested::Data            0                       # Table walker requests started/completed, data/inst
system.cpu.dstage2_mmu.stage2_tlb.walker.walkRequestOrigin_Requested::Inst            0                       # Table walker requests started/completed, data/inst
system.cpu.dstage2_mmu.stage2_tlb.walker.walkRequestOrigin_Requested::total            0                       # Table walker requests started/completed, data/inst
system.cpu.dstage2_mmu.stage2_tlb.walker.walkRequestOrigin_Completed::Data            0                       # Table walker requests started/completed, data/inst
system.cpu.dstage2_mmu.stage2_tlb.walker.walkRequestOrigin_Completed::Inst            0                       # Table walker requests started/completed, data/inst
system.cpu.dstage2_mmu.stage2_tlb.walker.walkRequestOrigin_Completed::total            0                       # Table walker requests started/completed, data/inst
system.cpu.dstage2_mmu.stage2_tlb.walker.walkRequestOrigin::total            0                       # Table walker requests started/completed, data/inst
system.cpu.dstage2_mmu.stage2_tlb.inst_hits            0                       # ITB inst hits
system.cpu.dstage2_mmu.stage2_tlb.inst_misses            0                       # ITB inst misses
system.cpu.dstage2_mmu.stage2_tlb.read_hits            0                       # DTB read hits
system.cpu.dstage2_mmu.stage2_tlb.read_misses            0                       # DTB read misses
system.cpu.dstage2_mmu.stage2_tlb.write_hits            0                       # DTB write hits
system.cpu.dstage2_mmu.stage2_tlb.write_misses            0                       # DTB write misses
system.cpu.dstage2_mmu.stage2_tlb.flush_tlb            0                       # Number of times complete TLB was flushed
system.cpu.dstage2_mmu.stage2_tlb.flush_tlb_mva            0                       # Number of times TLB was flushed by MVA
system.cpu.dstage2_mmu.stage2_tlb.flush_tlb_mva_asid            0                       # Number of times TLB was flushed by MVA & ASID
system.cpu.dstage2_mmu.stage2_tlb.flush_tlb_asid            0                       # Number of times TLB was flushed by ASID
system.cpu.dstage2_mmu.stage2_tlb.flush_entries            0                       # Number of entries that have been flushed from TLB
system.cpu.dstage2_mmu.stage2_tlb.align_faults            0                       # Number of TLB faults due to alignment restrictions
system.cpu.dstage2_mmu.stage2_tlb.prefetch_faults            0                       # Number of TLB faults due to prefetch
system.cpu.dstage2_mmu.stage2_tlb.domain_faults            0                       # Number of TLB faults due to domain restrictions
system.cpu.dstage2_mmu.stage2_tlb.perms_faults            0                       # Number of TLB faults due to permissions restrictions
system.cpu.dstage2_mmu.stage2_tlb.read_accesses            0                       # DTB read accesses
system.cpu.dstage2_mmu.stage2_tlb.write_accesses            0                       # DTB write accesses
system.cpu.dstage2_mmu.stage2_tlb.inst_accesses            0                       # ITB inst accesses
system.cpu.dstage2_mmu.stage2_tlb.hits              0                       # DTB hits
system.cpu.dstage2_mmu.stage2_tlb.misses            0                       # DTB misses
system.cpu.dstage2_mmu.stage2_tlb.accesses            0                       # DTB accesses
system.cpu.dtb.walker.walks                         0                       # Table walker walks requested
system.cpu.dtb.walker.walkRequestOrigin_Requested::Data            0                       # Table walker requests started/completed, data/inst
system.cpu.dtb.walker.walkRequestOrigin_Requested::Inst            0                       # Table walker requests started/completed, data/inst
system.cpu.dtb.walker.walkRequestOrigin_Requested::total            0                       # Table walker requests started/completed, data/inst
system.cpu.dtb.walker.walkRequestOrigin_Completed::Data            0                       # Table walker requests started/completed, data/inst
system.cpu.dtb.walker.walkRequestOrigin_Completed::Inst            0                       # Table walker requests started/completed, data/inst
system.cpu.dtb.walker.walkRequestOrigin_Completed::total            0                       # Table walker requests started/completed, data/inst
system.cpu.dtb.walker.walkRequestOrigin::total            0                       # Table walker requests started/completed, data/inst
system.cpu.dtb.inst_hits                            0                       # ITB inst hits
system.cpu.dtb.inst_misses                          0                       # ITB inst misses
system.cpu.dtb.read_hits                            0                       # DTB read hits
system.cpu.dtb.read_misses                          0                       # DTB read misses
system.cpu.dtb.write_hits                           0                       # DTB write hits
system.cpu.dtb.write_misses                         0                       # DTB write misses
system.cpu.dtb.flush_tlb                            0                       # Number of times complete TLB was flushed
system.cpu.dtb.flush_tlb_mva                        0                       # Number of times TLB was flushed by MVA
system.cpu.dtb.flush_tlb_mva_asid                   0                       # Number of times TLB was flushed by MVA & ASID
system.cpu.dtb.flush_tlb_asid                       0                       # Number of times TLB was flushed by ASID
system.cpu.dtb.flush_entries                        0                       # Number of entries that have been flushed from TLB
system.cpu.dtb.align_faults                         0                       # Number of TLB faults due to alignment restrictions
system.cpu.dtb.prefetch_faults                      0                       # Number of TLB faults due to prefetch
system.cpu.dtb.domain_faults                        0                       # Number of TLB faults due to domain restrictions
system.cpu.dtb.perms_faults                         0                       # Number of TLB faults due to permissions restrictions
system.cpu.dtb.read_accesses                        0                       # DTB read accesses
system.cpu.dtb.write_accesses                       0                       # DTB write accesses
system.cpu.dtb.inst_accesses                        0                       # ITB inst accesses
system.cpu.dtb.hits                                 0                       # DTB hits
system.cpu.dtb.misses                               0                       # DTB misses
system.cpu.dtb.accesses                             0                       # DTB accesses
system.cpu.istage2_mmu.stage2_tlb.walker.walks            0                       # Table walker walks requested
system.cpu.istage2_mmu.stage2_tlb.walker.walkRequestOrigin_Requested::Data            0                       # Table walker requests started/completed, data/inst
system.cpu.istage2_mmu.stage2_tlb.walker.walkRequestOrigin_Requested::Inst            0                       # Table walker requests started/completed, data/inst
system.cpu.istage2_mmu.stage2_tlb.walker.walkRequestOrigin_Requested::total            0                       # Table walker requests started/completed, data/inst
system.cpu.istage2_mmu.stage2_tlb.walker.walkRequestOrigin_Completed::Data            0                       # Table walker requests started/completed, data/inst
system.cpu.istage2_mmu.stage2_tlb.walker.walkRequestOrigin_Completed::Inst            0                       # Table walker requests started/completed, data/inst
system.cpu.istage2_mmu.stage2_tlb.walker.walkRequestOrigin_Completed::total            0                       # Table walker requests started/completed, data/inst
system.cpu.istage2_mmu.stage2_tlb.walker.walkRequestOrigin::total            0                       # Table walker requests started/completed, data/inst
system.cpu.istage2_mmu.stage2_tlb.inst_hits            0                       # ITB inst hits
system.cpu.istage2_mmu.stage2_tlb.inst_misses            0                       # ITB inst misses
system.cpu.istage2_mmu.stage2_tlb.read_hits            0                       # DTB read hits
system.cpu.istage2_mmu.stage2_tlb.read_misses            0                       # DTB read misses
system.cpu.istage2_mmu.stage2_tlb.write_hits            0                       # DTB write hits
system.cpu.istage2_mmu.stage2_tlb.write_misses            0                       # DTB write misses
system.cpu.istage2_mmu.stage2_tlb.flush_tlb            0                       # Number of times complete TLB was flushed
system.cpu.istage2_mmu.stage2_tlb.flush_tlb_mva            0                       # Number of times TLB was flushed by MVA
system.cpu.istage2_mmu.stage2_tlb.flush_tlb_mva_asid            0                       # Number of times TLB was flushed by MVA & ASID
system.cpu.istage2_mmu.stage2_tlb.flush_tlb_asid            0                       # Number of times TLB was flushed by ASID
system.cpu.istage2_mmu.stage2_tlb.flush_entries            0                       # Number of entries that have been flushed from TLB
system.cpu.istage2_mmu.stage2_tlb.align_faults            0                       # Number of TLB faults due to alignment restrictions
system.cpu.istage2_mmu.stage2_tlb.prefetch_faults            0                       # Number of TLB faults due to prefetch
system.cpu.istage2_mmu.stage2_tlb.domain_faults            0                       # Number of TLB faults due to domain restrictions
system.cpu.istage2_mmu.stage2_tlb.perms_faults            0                       # Number of TLB faults due to permissions restrictions
system.cpu.istage2_mmu.stage2_tlb.read_accesses            0                       # DTB read accesses
system.cpu.istage2_mmu.stage2_tlb.write_accesses            0                       # DTB write accesses
system.cpu.istage2_mmu.stage2_tlb.inst_accesses            0                       # ITB inst accesses
system.cpu.istage2_mmu.stage2_tlb.hits              0                       # DTB hits
system.cpu.istage2_mmu.stage2_tlb.misses            0                       # DTB misses
system.cpu.istage2_mmu.stage2_tlb.accesses            0                       # DTB accesses
system.cpu.itb.walker.walks                         0                       # Table walker walks requested
system.cpu.itb.walker.walkRequestOrigin_Requested::Data            0                       # Table walker requests started/completed, data/inst
system.cpu.itb.walker.walkRequestOrigin_Requested::Inst            0                       # Table walker requests started/completed, data/inst
system.cpu.itb.walker.walkRequestOrigin_Requested::total            0                       # Table walker requests started/completed, data/inst
system.cpu.itb.walker.walkRequestOrigin_Completed::Data            0                       # Table walker requests started/completed, data/inst
system.cpu.itb.walker.walkRequestOrigin_Completed::Inst            0                       # Table walker requests started/completed, data/inst
system.cpu.itb.walker.walkRequestOrigin_Completed::total            0                       # Table walker requests started/completed, data/inst
system.cpu.itb.walker.walkRequestOrigin::total            0                       # Table walker requests started/completed, data/inst
system.cpu.itb.inst_hits                            0                       # ITB inst hits
system.cpu.itb.inst_misses                          0                       # ITB inst misses
system.cpu.itb.read_hits                            0                       # DTB read hits
system.cpu.itb.read_misses                          0                       # DTB read misses
system.cpu.itb.write_hits                           0                       # DTB write hits
system.cpu.itb.write_misses                         0                       # DTB write misses
system.cpu.itb.flush_tlb                            0                       # Number of times complete TLB was flushed
system.cpu.itb.flush_tlb_mva                        0                       # Number of times TLB was flushed by MVA
system.cpu.itb.flush_tlb_mva_asid                   0                       # Number of times TLB was flushed by MVA & ASID
system.cpu.itb.flush_tlb_asid                       0                       # Number of times TLB was flushed by ASID
system.cpu.itb.flush_entries                        0                       # Number of entries that have been flushed from TLB
system.cpu.itb.align_faults                         0                       # Number of TLB faults due to alignment restrictions
system.cpu.itb.prefetch_faults                      0                       # Number of TLB faults due to prefetch
system.cpu.itb.domain_faults                        0                       # Number of TLB faults due to domain restrictions
system.cpu.itb.perms_faults                         0                       # Number of TLB faults due to permissions restrictions
system.cpu.itb.read_accesses                        0                       # DTB read accesses
system.cpu.itb.write_accesses                       0                       # DTB write accesses
system.cpu.itb.inst_accesses                        0                       # ITB inst accesses
system.cpu.itb.hits                                 0                       # DTB hits
system.cpu.itb.misses                               0                       # DTB misses
system.cpu.itb.accesses                             0                       # DTB accesses
system.cpu.workload.num_syscalls                   36                       # Number of system calls
system.cpu.numCycles                          1255016                       # number of cpu cycles simulated
system.cpu.numWorkItemsStarted                      0                       # number of work items this cpu started
system.cpu.numWorkItemsCompleted                    0                       # number of work items this cpu completed
system.cpu.fetch.icacheStallCycles              41505                       # Number of cycles fetch is stalled on an Icache miss
system.cpu.fetch.Insts                        1954604                       # Number of instructions fetch has processed
system.cpu.fetch.Branches                      271070                       # Number of branches that fetch encountered
system.cpu.fetch.predictedBranches             244476                       # Number of branches that fetch has predicted taken
system.cpu.fetch.Cycles                       1114905                       # Number of cycles fetch has run and was not squashing or blocked
system.cpu.fetch.SquashCycles                   16667                       # Number of cycles fetch has spent squashing
system.cpu.fetch.MiscStallCycles                  495                       # Number of cycles fetch has spent waiting on interrupts, or bad addresses, or out of MSHRs
system.cpu.fetch.PendingTrapStallCycles           383                       # Number of stall cycles due to pending traps
system.cpu.fetch.IcacheWaitRetryStallCycles         1073                       # Number of stall cycles due to full MSHR
system.cpu.fetch.CacheLines                    757046                       # Number of cache lines fetched
system.cpu.fetch.IcacheSquashes                   638                       # Number of outstanding Icache misses that were squashed
system.cpu.fetch.rateDist::samples            1166694                       # Number of instructions fetched each cycle (Total)
system.cpu.fetch.rateDist::mean              1.719551                       # Number of instructions fetched each cycle (Total)
system.cpu.fetch.rateDist::stdev             1.036989                       # Number of instructions fetched each cycle (Total)
system.cpu.fetch.rateDist::underflows               0      0.00%      0.00% # Number of instructions fetched each cycle (Total)
system.cpu.fetch.rateDist::0                    99653      8.54%      8.54% # Number of instructions fetched each cycle (Total)
system.cpu.fetch.rateDist::1                   537821     46.10%     54.64% # Number of instructions fetched each cycle (Total)
system.cpu.fetch.rateDist::2                   119291     10.22%     64.86% # Number of instructions fetched each cycle (Total)
system.cpu.fetch.rateDist::3                   409929     35.14%    100.00% # Number of instructions fetched each cycle (Total)
system.cpu.fetch.rateDist::overflows                0      0.00%    100.00% # Number of instructions fetched each cycle (Total)
system.cpu.fetch.rateDist::min_value                0                       # Number of instructions fetched each cycle (Total)
system.cpu.fetch.rateDist::max_value                3                       # Number of instructions fetched each cycle (Total)
system.cpu.fetch.rateDist::total              1166694                       # Number of instructions fetched each cycle (Total)
system.cpu.fetch.branchRate                  0.215989                       # Number of branch fetches per cycle
system.cpu.fetch.rate                        1.557434                       # Number of inst fetches per cycle
system.cpu.decode.IdleCycles                    43867                       # Number of cycles decode is idle
system.cpu.decode.BlockedCycles                 64850                       # Number of cycles decode is blocked
system.cpu.decode.RunCycles                   1048018                       # Number of cycles decode is running
system.cpu.decode.UnblockCycles                  2062                       # Number of cycles decode is unblocking
system.cpu.decode.SquashCycles                   7897                       # Number of cycles decode is squashing
system.cpu.decode.BranchResolved                 2494                       # Number of times decode resolved a branch
system.cpu.decode.BranchMispred                   461                       # Number of times decode detected a branch misprediction
system.cpu.decode.DecodedInsts                1939933                       # Number of instructions handled by decode
system.cpu.decode.SquashedInsts                 31040                       # Number of squashed instructions handled by decode
system.cpu.rename.SquashCycles                   7897                       # Number of cycles rename is squashing
system.cpu.rename.IdleCycles                    67849                       # Number of cycles rename is idle
system.cpu.rename.BlockCycles                   42898                       # Number of cycles rename is blocking
system.cpu.rename.serializeStallCycles          13635                       # count of cycles rename stalled for serializing inst
system.cpu.rename.RunCycles                   1025837                       # Number of cycles rename is running
system.cpu.rename.UnblockCycles                  8578                       # Number of cycles rename is unblocking
system.cpu.rename.RenamedInsts                1912025                       # Number of instructions processed by rename
system.cpu.rename.SquashedInsts                 11673                       # Number of squashed instructions processed by rename
system.cpu.rename.ROBFullEvents                  3114                       # Number of times rename has blocked due to ROB full
system.cpu.rename.IQFullEvents                    411                       # Number of times rename has blocked due to IQ full
system.cpu.rename.LQFullEvents                     65                       # Number of times rename has blocked due to LQ full
system.cpu.rename.SQFullEvents                   6380                       # Number of times rename has blocked due to SQ full
system.cpu.rename.RenamedOperands             2478792                       # Number of destination operands rename has renamed
system.cpu.rename.RenameLookups               8096593                       # Number of register rename lookups that rename has made
system.cpu.rename.int_rename_lookups          2188791                       # Number of integer rename lookups
system.cpu.rename.fp_rename_lookups                16                       # Number of floating rename lookups
system.cpu.rename.CommittedMaps               2376372                       # Number of HB maps that are committed
system.cpu.rename.UndoneMaps                   102420                       # Number of HB maps that are undone due to squashing
system.cpu.rename.serializingInsts                130                       # count of serializing insts renamed
system.cpu.rename.tempSerializingInsts            140                       # count of temporary serializing insts renamed
system.cpu.rename.skidInsts                      5431                       # count of insts added to the skid buffer
system.cpu.memDep0.insertedLoads               139330                       # Number of loads inserted to the mem dependence unit.
system.cpu.memDep0.insertedStores               27445                       # Number of stores inserted to the mem dependence unit.
system.cpu.memDep0.conflictingLoads              3128                       # Number of conflicting loads.
system.cpu.memDep0.conflictingStores              546                       # Number of conflicting stores.
system.cpu.iq.iqInstsAdded                    1903095                       # Number of instructions added to the IQ (excludes non-spec)
system.cpu.iq.iqNonSpecInstsAdded                 174                       # Number of non-speculative instructions added to the IQ
system.cpu.iq.iqInstsIssued                   1880748                       # Number of instructions issued
system.cpu.iq.iqSquashedInstsIssued              3995                       # Number of squashed instructions issued
system.cpu.iq.iqSquashedInstsExamined           67556                       # Number of squashed instructions iterated over during squash; mainly for profiling
system.cpu.iq.iqSquashedOperandsExamined       113542                       # Number of squashed operands that are examined and possibly removed from graph
system.cpu.iq.iqSquashedNonSpecRemoved             36                       # Number of squashed non-spec instructions that were removed
system.cpu.iq.issued_per_cycle::samples       1166694                       # Number of insts issued each cycle
system.cpu.iq.issued_per_cycle::mean         1.612032                       # Number of insts issued each cycle
system.cpu.iq.issued_per_cycle::stdev        0.758465                       # Number of insts issued each cycle
system.cpu.iq.issued_per_cycle::underflows            0      0.00%      0.00% # Number of insts issued each cycle
system.cpu.iq.issued_per_cycle::0              147889     12.68%     12.68% # Number of insts issued each cycle
system.cpu.iq.issued_per_cycle::1              205577     17.62%     30.30% # Number of insts issued each cycle
system.cpu.iq.issued_per_cycle::2              764975     65.57%     95.86% # Number of insts issued each cycle
system.cpu.iq.issued_per_cycle::3               47791      4.10%     99.96% # Number of insts issued each cycle
system.cpu.iq.issued_per_cycle::4                 462      0.04%    100.00% # Number of insts issued each cycle
system.cpu.iq.issued_per_cycle::5                   0      0.00%    100.00% # Number of insts issued each cycle
system.cpu.iq.issued_per_cycle::6                   0      0.00%    100.00% # Number of insts issued each cycle
system.cpu.iq.issued_per_cycle::7                   0      0.00%    100.00% # Number of insts issued each cycle
system.cpu.iq.issued_per_cycle::8                   0      0.00%    100.00% # Number of insts issued each cycle
system.cpu.iq.issued_per_cycle::overflows            0      0.00%    100.00% # Number of insts issued each cycle
system.cpu.iq.issued_per_cycle::min_value            0                       # Number of insts issued each cycle
system.cpu.iq.issued_per_cycle::max_value            4                       # Number of insts issued each cycle
system.cpu.iq.issued_per_cycle::total         1166694                       # Number of insts issued each cycle
system.cpu.iq.fu_full::No_OpClass                   0      0.00%      0.00% # attempts to use FU when none available
system.cpu.iq.fu_full::IntAlu                  206819     72.37%     72.37% # attempts to use FU when none available
system.cpu.iq.fu_full::IntMult                      0      0.00%     72.37% # attempts to use FU when none available
system.cpu.iq.fu_full::IntDiv                       0      0.00%     72.37% # attempts to use FU when none available
system.cpu.iq.fu_full::FloatAdd                     0      0.00%     72.37% # attempts to use FU when none available
system.cpu.iq.fu_full::FloatCmp                     0      0.00%     72.37% # attempts to use FU when none available
system.cpu.iq.fu_full::FloatCvt                     0      0.00%     72.37% # attempts to use FU when none available
system.cpu.iq.fu_full::FloatMult                    0      0.00%     72.37% # attempts to use FU when none available
system.cpu.iq.fu_full::FloatDiv                     0      0.00%     72.37% # attempts to use FU when none available
system.cpu.iq.fu_full::FloatSqrt                    0      0.00%     72.37% # attempts to use FU when none available
system.cpu.iq.fu_full::SimdAdd                      0      0.00%     72.37% # attempts to use FU when none available
system.cpu.iq.fu_full::SimdAddAcc                   0      0.00%     72.37% # attempts to use FU when none available
system.cpu.iq.fu_full::SimdAlu                      0      0.00%     72.37% # attempts to use FU when none available
system.cpu.iq.fu_full::SimdCmp                      0      0.00%     72.37% # attempts to use FU when none available
system.cpu.iq.fu_full::SimdCvt                      0      0.00%     72.37% # attempts to use FU when none available
system.cpu.iq.fu_full::SimdMisc                     0      0.00%     72.37% # attempts to use FU when none available
system.cpu.iq.fu_full::SimdMult                     0      0.00%     72.37% # attempts to use FU when none available
system.cpu.iq.fu_full::SimdMultAcc                  0      0.00%     72.37% # attempts to use FU when none available
system.cpu.iq.fu_full::SimdShift                    0      0.00%     72.37% # attempts to use FU when none available
system.cpu.iq.fu_full::SimdShiftAcc                 0      0.00%     72.37% # attempts to use FU when none available
system.cpu.iq.fu_full::SimdSqrt                     0      0.00%     72.37% # attempts to use FU when none available
system.cpu.iq.fu_full::SimdFloatAdd                 0      0.00%     72.37% # attempts to use FU when none available
system.cpu.iq.fu_full::SimdFloatAlu                 0      0.00%     72.37% # attempts to use FU when none available
system.cpu.iq.fu_full::SimdFloatCmp                 0      0.00%     72.37% # attempts to use FU when none available
system.cpu.iq.fu_full::SimdFloatCvt                 0      0.00%     72.37% # attempts to use FU when none available
system.cpu.iq.fu_full::SimdFloatDiv                 0      0.00%     72.37% # attempts to use FU when none available
system.cpu.iq.fu_full::SimdFloatMisc                0      0.00%     72.37% # attempts to use FU when none available
system.cpu.iq.fu_full::SimdFloatMult                0      0.00%     72.37% # attempts to use FU when none available
system.cpu.iq.fu_full::SimdFloatMultAcc             0      0.00%     72.37% # attempts to use FU when none available
system.cpu.iq.fu_full::SimdFloatSqrt                0      0.00%     72.37% # attempts to use FU when none available
system.cpu.iq.fu_full::MemRead                  69540     24.33%     96.70% # attempts to use FU when none available
system.cpu.iq.fu_full::MemWrite                  9433      3.30%    100.00% # attempts to use FU when none available
system.cpu.iq.fu_full::IprAccess                    0      0.00%    100.00% # attempts to use FU when none available
system.cpu.iq.fu_full::InstPrefetch                 0      0.00%    100.00% # attempts to use FU when none available
system.cpu.iq.FU_type_0::No_OpClass                 0      0.00%      0.00% # Type of FU issued
system.cpu.iq.FU_type_0::IntAlu               1715748     91.23%     91.23% # Type of FU issued
system.cpu.iq.FU_type_0::IntMult                  108      0.01%     91.23% # Type of FU issued
system.cpu.iq.FU_type_0::IntDiv                     0      0.00%     91.23% # Type of FU issued
system.cpu.iq.FU_type_0::FloatAdd                   0      0.00%     91.23% # Type of FU issued
system.cpu.iq.FU_type_0::FloatCmp                   0      0.00%     91.23% # Type of FU issued
system.cpu.iq.FU_type_0::FloatCvt                   0      0.00%     91.23% # Type of FU issued
system.cpu.iq.FU_type_0::FloatMult                  0      0.00%     91.23% # Type of FU issued
system.cpu.iq.FU_type_0::FloatDiv                   0      0.00%     91.23% # Type of FU issued
system.cpu.iq.FU_type_0::FloatSqrt                  0      0.00%     91.23% # Type of FU issued
system.cpu.iq.FU_type_0::SimdAdd                    0      0.00%     91.23% # Type of FU issued
system.cpu.iq.FU_type_0::SimdAddAcc                 0      0.00%     91.23% # Type of FU issued
system.cpu.iq.FU_type_0::SimdAlu                    0      0.00%     91.23% # Type of FU issued
system.cpu.iq.FU_type_0::SimdCmp                    0      0.00%     91.23% # Type of FU issued
system.cpu.iq.FU_type_0::SimdCvt                    0      0.00%     91.23% # Type of FU issued
system.cpu.iq.FU_type_0::SimdMisc                   0      0.00%     91.23% # Type of FU issued
system.cpu.iq.FU_type_0::SimdMult                   0      0.00%     91.23% # Type of FU issued
system.cpu.iq.FU_type_0::SimdMultAcc                0      0.00%     91.23% # Type of FU issued
system.cpu.iq.FU_type_0::SimdShift                  0      0.00%     91.23% # Type of FU issued
system.cpu.iq.FU_type_0::SimdShiftAcc               0      0.00%     91.23% # Type of FU issued
system.cpu.iq.FU_type_0::SimdSqrt                   0      0.00%     91.23% # Type of FU issued
system.cpu.iq.FU_type_0::SimdFloatAdd               0      0.00%     91.23% # Type of FU issued
system.cpu.iq.FU_type_0::SimdFloatAlu               0      0.00%     91.23% # Type of FU issued
system.cpu.iq.FU_type_0::SimdFloatCmp               0      0.00%     91.23% # Type of FU issued
system.cpu.iq.FU_type_0::SimdFloatCvt               0      0.00%     91.23% # Type of FU issued
system.cpu.iq.FU_type_0::SimdFloatDiv               0      0.00%     91.23% # Type of FU issued
system.cpu.iq.FU_type_0::SimdFloatMisc              7      0.00%     91.23% # Type of FU issued
system.cpu.iq.FU_type_0::SimdFloatMult              0      0.00%     91.23% # Type of FU issued
system.cpu.iq.FU_type_0::SimdFloatMultAcc            0      0.00%     91.23% # Type of FU issued
system.cpu.iq.FU_type_0::SimdFloatSqrt              0      0.00%     91.23% # Type of FU issued
system.cpu.iq.FU_type_0::MemRead               138527      7.37%     98.60% # Type of FU issued
system.cpu.iq.FU_type_0::MemWrite               26358      1.40%    100.00% # Type of FU issued
system.cpu.iq.FU_type_0::IprAccess                  0      0.00%    100.00% # Type of FU issued
system.cpu.iq.FU_type_0::InstPrefetch               0      0.00%    100.00% # Type of FU issued
system.cpu.iq.FU_type_0::total                1880748                       # Type of FU issued
system.cpu.iq.rate                           1.498585                       # Inst issue rate
system.cpu.iq.fu_busy_cnt                      285792                       # FU busy when requested
system.cpu.iq.fu_busy_rate                   0.151957                       # FU busy rate (busy events/executed inst)
system.cpu.iq.int_inst_queue_reads            5217934                       # Number of integer instruction queue reads
system.cpu.iq.int_inst_queue_writes           1970844                       # Number of integer instruction queue writes
system.cpu.iq.int_inst_queue_wakeup_accesses      1864966                       # Number of integer instruction queue wakeup accesses
system.cpu.iq.fp_inst_queue_reads                  43                       # Number of floating instruction queue reads
system.cpu.iq.fp_inst_queue_writes                 16                       # Number of floating instruction queue writes
system.cpu.iq.fp_inst_queue_wakeup_accesses           16                       # Number of floating instruction queue wakeup accesses
system.cpu.iq.int_alu_accesses                2166513                       # Number of integer alu accesses
system.cpu.iq.fp_alu_accesses                      27                       # Number of floating point alu accesses
system.cpu.iew.lsq.thread0.forwLoads             3216                       # Number of loads that had data forwarded from stores
system.cpu.iew.lsq.thread0.invAddrLoads             0                       # Number of loads ignored due to an invalid address
system.cpu.iew.lsq.thread0.squashedLoads         4093                       # Number of loads squashed
system.cpu.iew.lsq.thread0.ignoredResponses            3                       # Number of memory responses ignored because the instruction is squashed
system.cpu.iew.lsq.thread0.memOrderViolation           35                       # Number of memory ordering violations
system.cpu.iew.lsq.thread0.squashedStores         2454                       # Number of stores squashed
system.cpu.iew.lsq.thread0.invAddrSwpfs             0                       # Number of software prefetches ignored due to an invalid address
system.cpu.iew.lsq.thread0.blockedLoads             0                       # Number of blocked loads due to partial load-store forwarding
system.cpu.iew.lsq.thread0.rescheduledLoads          135                       # Number of loads that were rescheduled
system.cpu.iew.lsq.thread0.cacheBlocked           133                       # Number of times an access to memory failed due to the cache being blocked
system.cpu.iew.iewIdleCycles                        0                       # Number of cycles IEW is idle
system.cpu.iew.iewSquashCycles                   7897                       # Number of cycles IEW is squashing
system.cpu.iew.iewBlockCycles                    5326                       # Number of cycles IEW is blocking
system.cpu.iew.iewUnblockCycles                   788                       # Number of cycles IEW is unblocking
system.cpu.iew.iewDispatchedInsts             1903277                       # Number of instructions dispatched to IQ
system.cpu.iew.iewDispSquashedInsts                 0                       # Number of squashed instructions skipped by dispatch
system.cpu.iew.iewDispLoadInsts                139330                       # Number of dispatched load instructions
system.cpu.iew.iewDispStoreInsts                27445                       # Number of dispatched store instructions
system.cpu.iew.iewDispNonSpecInsts                122                       # Number of dispatched non-speculative instructions
system.cpu.iew.iewIQFullEvents                     53                       # Number of times the IQ has become full, causing a stall
system.cpu.iew.iewLSQFullEvents                   701                       # Number of times the LSQ has become full, causing a stall
system.cpu.iew.memOrderViolationEvents             35                       # Number of memory order violations
system.cpu.iew.predictedTakenIncorrect           6279                       # Number of branches that were predicted taken incorrectly
system.cpu.iew.predictedNotTakenIncorrect         1657                       # Number of branches that were predicted not taken incorrectly
system.cpu.iew.branchMispredicts                 7936                       # Number of branch mispredicts detected at execute
system.cpu.iew.iewExecutedInsts               1866149                       # Number of executed instructions
system.cpu.iew.iewExecLoadInsts                137599                       # Number of load instructions executed
system.cpu.iew.iewExecSquashedInsts             14599                       # Number of squashed instructions skipped in execute
system.cpu.iew.exec_swp                             0                       # number of swp insts executed
system.cpu.iew.exec_nop                             8                       # number of nop insts executed
system.cpu.iew.exec_refs                       163539                       # number of memory reference insts executed
system.cpu.iew.exec_branches                   248248                       # Number of branches executed
system.cpu.iew.exec_stores                      25940                       # Number of stores executed
system.cpu.iew.exec_rate                     1.486952                       # Inst execution rate
system.cpu.iew.wb_sent                        1865130                       # cumulative count of insts sent to commit
system.cpu.iew.wb_count                       1864982                       # cumulative count of insts written-back
system.cpu.iew.wb_producers                   1333380                       # num instructions producing a value
system.cpu.iew.wb_consumers                   2164443                       # num instructions consuming a value
system.cpu.iew.wb_penalized                         0                       # number of instrctions required to write to 'other' IQ
system.cpu.iew.wb_rate                       1.486022                       # insts written-back per cycle
system.cpu.iew.wb_fanout                     0.616038                       # average fanout of values written-back
system.cpu.iew.wb_penalized_rate                    0                       # fraction of instructions written-back that wrote to 'other' IQ
system.cpu.commit.commitSquashedInsts           46884                       # The number of squashed insts skipped by commit
system.cpu.commit.commitNonSpecStalls             138                       # The number of times commit has been forced to stall to communicate backwards
system.cpu.commit.branchMispredicts              7828                       # The number of times a branch was mispredicted
system.cpu.commit.committed_per_cycle::samples      1157463                       # Number of insts commited each cycle
system.cpu.commit.committed_per_cycle::mean     1.585980                       # Number of insts commited each cycle
system.cpu.commit.committed_per_cycle::stdev     1.282652                       # Number of insts commited each cycle
system.cpu.commit.committed_per_cycle::underflows            0      0.00%      0.00% # Number of insts commited each cycle
system.cpu.commit.committed_per_cycle::0       245191     21.18%     21.18% # Number of insts commited each cycle
system.cpu.commit.committed_per_cycle::1       368550     31.84%     53.02% # Number of insts commited each cycle
system.cpu.commit.committed_per_cycle::2       270548     23.37%     76.40% # Number of insts commited each cycle
system.cpu.commit.committed_per_cycle::3       218251     18.86%     95.25% # Number of insts commited each cycle
system.cpu.commit.committed_per_cycle::4        22466      1.94%     97.20% # Number of insts commited each cycle
system.cpu.commit.committed_per_cycle::5        21677      1.87%     99.07% # Number of insts commited each cycle
system.cpu.commit.committed_per_cycle::6         3489      0.30%     99.37% # Number of insts commited each cycle
system.cpu.commit.committed_per_cycle::7         6197      0.54%     99.91% # Number of insts commited each cycle
system.cpu.commit.committed_per_cycle::8         1094      0.09%    100.00% # Number of insts commited each cycle
system.cpu.commit.committed_per_cycle::overflows            0      0.00%    100.00% # Number of insts commited each cycle
system.cpu.commit.committed_per_cycle::min_value            0                       # Number of insts commited each cycle
system.cpu.commit.committed_per_cycle::max_value            8                       # Number of insts commited each cycle
system.cpu.commit.committed_per_cycle::total      1157463                       # Number of insts commited each cycle
system.cpu.commit.committedInsts              1791782                       # Number of instructions committed
system.cpu.commit.committedOps                1835713                       # Number of ops (including micro ops) committed
system.cpu.commit.swp_count                         0                       # Number of s/w prefetches committed
system.cpu.commit.refs                         160228                       # Number of memory references committed
system.cpu.commit.loads                        135237                       # Number of loads committed
system.cpu.commit.membars                          50                       # Number of memory barriers committed
system.cpu.commit.branches                     246629                       # Number of branches committed
system.cpu.commit.fp_insts                         16                       # Number of committed floating point instructions.
system.cpu.commit.int_insts                   1633209                       # Number of committed integer instructions.
system.cpu.commit.function_calls                21875                       # Number of function calls committed.
system.cpu.commit.op_class_0::No_OpClass            0      0.00%      0.00% # Class of committed instruction
system.cpu.commit.op_class_0::IntAlu          1675370     91.27%     91.27% # Class of committed instruction
system.cpu.commit.op_class_0::IntMult             108      0.01%     91.27% # Class of committed instruction
system.cpu.commit.op_class_0::IntDiv                0      0.00%     91.27% # Class of committed instruction
system.cpu.commit.op_class_0::FloatAdd              0      0.00%     91.27% # Class of committed instruction
system.cpu.commit.op_class_0::FloatCmp              0      0.00%     91.27% # Class of committed instruction
system.cpu.commit.op_class_0::FloatCvt              0      0.00%     91.27% # Class of committed instruction
system.cpu.commit.op_class_0::FloatMult             0      0.00%     91.27% # Class of committed instruction
system.cpu.commit.op_class_0::FloatDiv              0      0.00%     91.27% # Class of committed instruction
system.cpu.commit.op_class_0::FloatSqrt             0      0.00%     91.27% # Class of committed instruction
system.cpu.commit.op_class_0::SimdAdd               0      0.00%     91.27% # Class of committed instruction
system.cpu.commit.op_class_0::SimdAddAcc            0      0.00%     91.27% # Class of committed instruction
system.cpu.commit.op_class_0::SimdAlu               0      0.00%     91.27% # Class of committed instruction
system.cpu.commit.op_class_0::SimdCmp               0      0.00%     91.27% # Class of committed instruction
system.cpu.commit.op_class_0::SimdCvt               0      0.00%     91.27% # Class of committed instruction
system.cpu.commit.op_class_0::SimdMisc              0      0.00%     91.27% # Class of committed instruction
system.cpu.commit.op_class_0::SimdMult              0      0.00%     91.27% # Class of committed instruction
system.cpu.commit.op_class_0::SimdMultAcc            0      0.00%     91.27% # Class of committed instruction
system.cpu.commit.op_class_0::SimdShift             0      0.00%     91.27% # Class of committed instruction
system.cpu.commit.op_class_0::SimdShiftAcc            0      0.00%     91.27% # Class of committed instruction
system.cpu.commit.op_class_0::SimdSqrt              0      0.00%     91.27% # Class of committed instruction
system.cpu.commit.op_class_0::SimdFloatAdd            0      0.00%     91.27% # Class of committed instruction
system.cpu.commit.op_class_0::SimdFloatAlu            0      0.00%     91.27% # Class of committed instruction
system.cpu.commit.op_class_0::SimdFloatCmp            0      0.00%     91.27% # Class of committed instruction
system.cpu.commit.op_class_0::SimdFloatCvt            0      0.00%     91.27% # Class of committed instruction
system.cpu.commit.op_class_0::SimdFloatDiv            0      0.00%     91.27% # Class of committed instruction
system.cpu.commit.op_class_0::SimdFloatMisc            7      0.00%     91.27% # Class of committed instruction
system.cpu.commit.op_class_0::SimdFloatMult            0      0.00%     91.27% # Class of committed instruction
system.cpu.commit.op_class_0::SimdFloatMultAcc            0      0.00%     91.27% # Class of committed instruction
system.cpu.commit.op_class_0::SimdFloatSqrt            0      0.00%     91.27% # Class of committed instruction
system.cpu.commit.op_class_0::MemRead          135237      7.37%     98.64% # Class of committed instruction
system.cpu.commit.op_class_0::MemWrite          24991      1.36%    100.00% # Class of committed instruction
system.cpu.commit.op_class_0::IprAccess             0      0.00%    100.00% # Class of committed instruction
system.cpu.commit.op_class_0::InstPrefetch            0      0.00%    100.00% # Class of committed instruction
system.cpu.commit.op_class_0::total           1835713                       # Class of committed instruction
system.cpu.commit.bw_lim_events                  1094                       # number cycles where commit BW limit reached
system.cpu.rob.rob_reads                      3038511                       # The number of ROB reads
system.cpu.rob.rob_writes                     3774431                       # The number of ROB writes
system.cpu.timesIdled                            1391                       # Number of times that the entire CPU went into an idle state and unscheduled itself
system.cpu.idleCycles                           88322                       # Total number of cycles that the CPU has spent unscheduled due to idling
system.cpu.committedInsts                     1791782                       # Number of Instructions Simulated
system.cpu.committedOps                       1835713                       # Number of Ops (including micro ops) Simulated
[...]
system.cpu.dcache.blocked::no_targets              68                       # number of cycles access was blocked
system.cpu.dcache.avg_blocked_cycles::no_mshrs           27                       # average number of cycles each access was blocked
system.cpu.dcache.avg_blocked_cycles::no_targets    49.764706                       # average number of cycles each access was blocked
system.cpu.dcache.fast_writes                       0                       # number of fast writes performed
system.cpu.dcache.cache_copies                      0                       # number of cache copies performed
system.cpu.dcache.writebacks::writebacks          606                       # number of writebacks
system.cpu.dcache.writebacks::total               606                       # number of writebacks
system.cpu.dcache.ReadReq_mshr_hits::cpu.data          972                       # number of ReadReq MSHR hits
system.cpu.dcache.ReadReq_mshr_hits::total          972                       # number of ReadReq MSHR hits
system.cpu.dcache.WriteReq_mshr_hits::cpu.data         1047                       # number of WriteReq MSHR hits
system.cpu.dcache.WriteReq_mshr_hits::total         1047                       # number of WriteReq MSHR hits
system.cpu.dcache.LoadLockedReq_mshr_hits::cpu.data           12                       # number of LoadLockedReq MSHR hits
system.cpu.dcache.LoadLockedReq_mshr_hits::total           12                       # number of LoadLockedReq MSHR hits
system.cpu.dcache.demand_mshr_hits::cpu.data         2019                       # number of demand (read+write) MSHR hits
system.cpu.dcache.demand_mshr_hits::total         2019                       # number of demand (read+write) MSHR hits
system.cpu.dcache.overall_mshr_hits::cpu.data         2019                       # number of overall MSHR hits
system.cpu.dcache.overall_mshr_hits::total         2019                       # number of overall MSHR hits
system.cpu.dcache.ReadReq_mshr_misses::cpu.data         1528                       # number of ReadReq MSHR misses
system.cpu.dcache.ReadReq_mshr_misses::total         1528                       # number of ReadReq MSHR misses
system.cpu.dcache.WriteReq_mshr_misses::cpu.data          397                       # number of WriteReq MSHR misses
system.cpu.dcache.WriteReq_mshr_misses::total          397                       # number of WriteReq MSHR misses
system.cpu.dcache.demand_mshr_misses::cpu.data         1925                       # number of demand (read+write) MSHR misses
system.cpu.dcache.demand_mshr_misses::total         1925                       # number of demand (read+write) MSHR misses
system.cpu.dcache.overall_mshr_misses::cpu.data         1925                       # number of overall MSHR misses
system.cpu.dcache.overall_mshr_misses::total         1925                       # number of overall MSHR misses
system.cpu.dcache.ReadReq_mshr_miss_latency::cpu.data     77500750                       # number of ReadReq MSHR miss cycles
system.cpu.dcache.ReadReq_mshr_miss_latency::total     77500750                       # number of ReadReq MSHR miss cycles
system.cpu.dcache.WriteReq_mshr_miss_latency::cpu.data     10761499                       # number of WriteReq MSHR miss cycles
system.cpu.dcache.WriteReq_mshr_miss_latency::total     10761499                       # number of WriteReq MSHR miss cycles
system.cpu.dcache.demand_mshr_miss_latency::cpu.data     88262249                       # number of demand (read+write) MSHR miss cycles
system.cpu.dcache.demand_mshr_miss_latency::total     88262249                       # number of demand (read+write) MSHR miss cycles
system.cpu.dcache.overall_mshr_miss_latency::cpu.data     88262249                       # number of overall MSHR miss cycles
system.cpu.dcache.overall_mshr_miss_latency::total     88262249                       # number of overall MSHR miss cycles
system.cpu.dcache.ReadReq_mshr_miss_rate::cpu.data     0.011415                       # mshr miss rate for ReadReq accesses
system.cpu.dcache.ReadReq_mshr_miss_rate::total     0.011415                       # mshr miss rate for ReadReq accesses
system.cpu.dcache.WriteReq_mshr_miss_rate::cpu.data     0.016132                       # mshr miss rate for WriteReq accesses
system.cpu.dcache.WriteReq_mshr_miss_rate::total     0.016132                       # mshr miss rate for WriteReq accesses
system.cpu.dcache.demand_mshr_miss_rate::cpu.data     0.012148                       # mshr miss rate for demand accesses
system.cpu.dcache.demand_mshr_miss_rate::total     0.012148                       # mshr miss rate for demand accesses
system.cpu.dcache.overall_mshr_miss_rate::cpu.data     0.012148                       # mshr miss rate for overall accesses
system.cpu.dcache.overall_mshr_miss_rate::total     0.012148                       # mshr miss rate for overall accesses
system.cpu.dcache.ReadReq_avg_mshr_miss_latency::cpu.data 50720.386126                       # average ReadReq mshr miss latency
system.cpu.dcache.ReadReq_avg_mshr_miss_latency::total 50720.386126                       # average ReadReq mshr miss latency
system.cpu.dcache.WriteReq_avg_mshr_miss_latency::cpu.data 27107.050378                       # average WriteReq mshr miss latency
system.cpu.dcache.WriteReq_avg_mshr_miss_latency::total 27107.050378                       # average WriteReq mshr miss latency
system.cpu.dcache.demand_avg_mshr_miss_latency::cpu.data 45850.518961                       # average overall mshr miss latency
system.cpu.dcache.demand_avg_mshr_miss_latency::total 45850.518961                       # average overall mshr miss latency
system.cpu.dcache.overall_avg_mshr_miss_latency::cpu.data 45850.518961                       # average overall mshr miss latency
system.cpu.dcache.overall_avg_mshr_miss_latency::total 45850.518961                       # average overall mshr miss latency
system.cpu.dcache.no_allocate_misses                0                       # Number of misses that were no-allocate
system.cpu.icache.tags.replacements               950                       # number of replacements
system.cpu.icache.tags.tagsinuse           384.904723                       # Cycle average of tags in use
system.cpu.icache.tags.total_refs              755430                       # Total number of references to valid blocks.
system.cpu.icache.tags.sampled_refs              1378                       # Sample count of references to valid blocks.
system.cpu.icache.tags.avg_refs            548.207547                       # Average number of references to valid blocks.
system.cpu.icache.tags.warmup_cycle                 0                       # Cycle when the warmup percentage was hit.
system.cpu.icache.tags.occ_blocks::cpu.inst   384.904723                       # Average occupied blocks per requestor
system.cpu.icache.tags.occ_percent::cpu.inst     0.751767                       # Average percentage of cache occupancy
system.cpu.icache.tags.occ_percent::total     0.751767                       # Average percentage of cache occupancy
system.cpu.icache.tags.occ_task_id_blocks::1024          428                       # Occupied blocks per task id
system.cpu.icache.tags.age_task_id_blocks_1024::0           88                       # Occupied blocks per task id
system.cpu.icache.tags.age_task_id_blocks_1024::1           20                       # Occupied blocks per task id
system.cpu.icache.tags.age_task_id_blocks_1024::2          320                       # Occupied blocks per task id
system.cpu.icache.tags.occ_task_id_percent::1024     0.835938                       # Percentage of cache occupancy per task id
system.cpu.icache.tags.tag_accesses           1515452                       # Number of tag accesses
system.cpu.icache.tags.data_accesses          1515452                       # Number of data accesses
system.cpu.icache.ReadReq_hits::cpu.inst       755430                       # number of ReadReq hits
system.cpu.icache.ReadReq_hits::total          755430                       # number of ReadReq hits
system.cpu.icache.demand_hits::cpu.inst        755430                       # number of demand (read+write) hits
system.cpu.icache.demand_hits::total           755430                       # number of demand (read+write) hits
system.cpu.icache.overall_hits::cpu.inst       755430                       # number of overall hits
system.cpu.icache.overall_hits::total          755430                       # number of overall hits
system.cpu.icache.ReadReq_misses::cpu.inst         1607                       # number of ReadReq misses
system.cpu.icache.ReadReq_misses::total          1607                       # number of ReadReq misses
system.cpu.icache.demand_misses::cpu.inst         1607                       # number of demand (read+write) misses
system.cpu.icache.demand_misses::total           1607                       # number of demand (read+write) misses
system.cpu.icache.overall_misses::cpu.inst         1607                       # number of overall misses
system.cpu.icache.overall_misses::total          1607                       # number of overall misses
system.cpu.icache.ReadReq_miss_latency::cpu.inst     89145220                       # number of ReadReq miss cycles
system.cpu.icache.ReadReq_miss_latency::total     89145220                       # number of ReadReq miss cycles
system.cpu.icache.demand_miss_latency::cpu.inst     89145220                       # number of demand (read+write) miss cycles
system.cpu.icache.demand_miss_latency::total     89145220                       # number of demand (read+write) miss cycles
system.cpu.icache.overall_miss_latency::cpu.inst     89145220                       # number of overall miss cycles
system.cpu.icache.overall_miss_latency::total     89145220                       # number of overall miss cycles
system.cpu.icache.ReadReq_accesses::cpu.inst       757037                       # number of ReadReq accesses(hits+misses)
system.cpu.icache.ReadReq_accesses::total       757037                       # number of ReadReq accesses(hits+misses)
system.cpu.icache.demand_accesses::cpu.inst       757037                       # number of demand (read+write) accesses
system.cpu.icache.demand_accesses::total       757037                       # number of demand (read+write) accesses
system.cpu.icache.overall_accesses::cpu.inst       757037                       # number of overall (read+write) accesses
system.cpu.icache.overall_accesses::total       757037                       # number of overall (read+write) accesses
system.cpu.icache.ReadReq_miss_rate::cpu.inst     0.002123                       # miss rate for ReadReq accesses
system.cpu.icache.ReadReq_miss_rate::total     0.002123                       # miss rate for ReadReq accesses
system.cpu.icache.demand_miss_rate::cpu.inst     0.002123                       # miss rate for demand accesses
system.cpu.icache.demand_miss_rate::total     0.002123                       # miss rate for demand accesses
system.cpu.icache.overall_miss_rate::cpu.inst     0.002123                       # miss rate for overall accesses
system.cpu.icache.overall_miss_rate::total     0.002123                       # miss rate for overall accesses
system.cpu.icache.ReadReq_avg_miss_latency::cpu.inst 55473.067828                       # average ReadReq miss latency
system.cpu.icache.ReadReq_avg_miss_latency::total 55473.067828                       # average ReadReq miss latency
system.cpu.icache.demand_avg_miss_latency::cpu.inst 55473.067828                       # average overall miss latency
system.cpu.icache.demand_avg_miss_latency::total 55473.067828                       # average overall miss latency
system.cpu.icache.overall_avg_miss_latency::cpu.inst 55473.067828                       # average overall miss latency
system.cpu.icache.overall_avg_miss_latency::total 55473.067828                       # average overall miss latency
system.cpu.icache.blocked_cycles::no_mshrs        22061                       # number of cycles access was blocked
system.cpu.icache.blocked_cycles::no_targets            0                       # number of cycles access was blocked
system.cpu.icache.blocked::no_mshrs               289                       # number of cycles access was blocked
system.cpu.icache.blocked::no_targets               0                       # number of cycles access was blocked
system.cpu.icache.avg_blocked_cycles::no_mshrs    76.335640                       # average number of cycles each access was blocked
system.cpu.icache.avg_blocked_cycles::no_targets          nan                       # average number of cycles each access was blocked
system.cpu.icache.fast_writes                       0                       # number of fast writes performed
system.cpu.icache.cache_copies                      0                       # number of cache copies performed
system.cpu.icache.ReadReq_mshr_hits::cpu.inst          228                       # number of ReadReq MSHR hits
system.cpu.icache.ReadReq_mshr_hits::total          228                       # number of ReadReq MSHR hits
system.cpu.icache.demand_mshr_hits::cpu.inst          228                       # number of demand (read+write) MSHR hits
system.cpu.icache.demand_mshr_hits::total          228                       # number of demand (read+write) MSHR hits
system.cpu.icache.overall_mshr_hits::cpu.inst          228                       # number of overall MSHR hits
system.cpu.icache.overall_mshr_hits::total          228                       # number of overall MSHR hits
system.cpu.icache.ReadReq_mshr_misses::cpu.inst         1379                       # number of ReadReq MSHR misses
system.cpu.icache.ReadReq_mshr_misses::total         1379                       # number of ReadReq MSHR misses
system.cpu.icache.demand_mshr_misses::cpu.inst         1379                       # number of demand (read+write) MSHR misses
system.cpu.icache.demand_mshr_misses::total         1379                       # number of demand (read+write) MSHR misses
system.cpu.icache.overall_mshr_misses::cpu.inst         1379                       # number of overall MSHR misses
system.cpu.icache.overall_mshr_misses::total         1379                       # number of overall MSHR misses
system.cpu.icache.ReadReq_mshr_miss_latency::cpu.inst     76816230                       # number of ReadReq MSHR miss cycles
system.cpu.icache.ReadReq_mshr_miss_latency::total     76816230                       # number of ReadReq MSHR miss cycles
system.cpu.icache.demand_mshr_miss_latency::cpu.inst     76816230                       # number of demand (read+write) MSHR miss cycles
system.cpu.icache.demand_mshr_miss_latency::total     76816230                       # number of demand (read+write) MSHR miss cycles
system.cpu.icache.overall_mshr_miss_latency::cpu.inst     76816230                       # number of overall MSHR miss cycles
system.cpu.icache.overall_mshr_miss_latency::total     76816230                       # number of overall MSHR miss cycles
system.cpu.icache.ReadReq_mshr_miss_rate::cpu.inst     0.001822                       # mshr miss rate for ReadReq accesses
system.cpu.icache.ReadReq_mshr_miss_rate::total     0.001822                       # mshr miss rate for ReadReq accesses
system.cpu.icache.demand_mshr_miss_rate::cpu.inst     0.001822                       # mshr miss rate for demand accesses
system.cpu.icache.demand_mshr_miss_rate::total     0.001822                       # mshr miss rate for demand accesses
system.cpu.icache.overall_mshr_miss_rate::cpu.inst     0.001822                       # mshr miss rate for overall accesses
system.cpu.icache.overall_mshr_miss_rate::total     0.001822                       # mshr miss rate for overall accesses
system.cpu.icache.ReadReq_avg_mshr_miss_latency::cpu.inst 55704.300218                       # average ReadReq mshr miss latency
system.cpu.icache.ReadReq_avg_mshr_miss_latency::total 55704.300218                       # average ReadReq mshr miss latency
system.cpu.icache.demand_avg_mshr_miss_latency::cpu.inst 55704.300218                       # average overall mshr miss latency
system.cpu.icache.demand_avg_mshr_miss_latency::total 55704.300218                       # average overall mshr miss latency
system.cpu.icache.overall_avg_mshr_miss_latency::cpu.inst 55704.300218                       # average overall mshr miss latency
system.cpu.icache.overall_avg_mshr_miss_latency::total 55704.300218                       # average overall mshr miss latency
system.cpu.icache.no_allocate_misses                0                       # Number of misses that were no-allocate
system.membus.trans_dist::ReadReq                2905                       # Transaction distribution
system.membus.trans_dist::ReadResp               2904                       # Transaction distribution
system.membus.trans_dist::Writeback               606                       # Transaction distribution
system.membus.trans_dist::ReadExReq               399                       # Transaction distribution
system.membus.trans_dist::ReadExResp              399                       # Transaction distribution
system.membus.pkt_count_system.cpu.icache.mem_side::system.mem_ctrls.port         2757                       # Packet count per connected master and slave (bytes)
system.membus.pkt_count_system.cpu.dcache.mem_side::system.mem_ctrls.port         4456                       # Packet count per connected master and slave (bytes)
system.membus.pkt_count::total                   7213                       # Packet count per connected master and slave (bytes)
system.membus.pkt_size_system.cpu.icache.mem_side::system.mem_ctrls.port        88192                       # Cumulative packet size per connected master and slave (bytes)
system.membus.pkt_size_system.cpu.dcache.mem_side::system.mem_ctrls.port       161984                       # Cumulative packet size per connected master and slave (bytes)
system.membus.pkt_size::total                  250176                       # Cumulative packet size per connected master and slave (bytes)
system.membus.snoops                                0                       # Total snoops (count)
system.membus.snoop_fanout::samples              3910                       # Request fanout histogram
system.membus.snoop_fanout::mean                    1                       # Request fanout histogram
system.membus.snoop_fanout::stdev                   0                       # Request fanout histogram
system.membus.snoop_fanout::underflows              0      0.00%      0.00% # Request fanout histogram
system.membus.snoop_fanout::0                       0      0.00%      0.00% # Request fanout histogram
system.membus.snoop_fanout::1                    3910    100.00%    100.00% # Request fanout histogram
system.membus.snoop_fanout::2                       0      0.00%    100.00% # Request fanout histogram
system.membus.snoop_fanout::overflows               0      0.00%    100.00% # Request fanout histogram
system.membus.snoop_fanout::min_value               1                       # Request fanout histogram
system.membus.snoop_fanout::max_value               1                       # Request fanout histogram
system.membus.snoop_fanout::total                3910                       # Request fanout histogram
system.membus.reqLayer0.occupancy             7117000                       # Layer occupancy (ticks)
system.membus.reqLayer0.utilization               1.1                       # Layer utilization (%)
system.membus.respLayer1.occupancy            7349249                       # Layer occupancy (ticks)
system.membus.respLayer1.utilization              1.2                       # Layer utilization (%)
system.membus.respLayer2.occupancy           10070250                       # Layer occupancy (ticks)
system.membus.respLayer2.utilization              1.6                       # Layer utilization (%)

---------- End Simulation Statistics   ----------
