
---------- Begin Simulation Statistics ----------
sim_seconds                                  0.000036                       # Number of seconds simulated
sim_ticks                                    36197000                       # Number of ticks simulated
final_tick                                   36197000                       # Number of ticks from beginning of simulation (restored from checkpoints and never reset)
sim_freq                                 1000000000000                       # Frequency of simulated ticks
host_inst_rate                                  77669                       # Simulator instruction rate (inst/s)
host_op_rate                                    90866                       # Simulator op (including micro ops) rate (op/s)
host_tick_rate                              260706668                       # Simulator tick rate (ticks/s)
host_mem_usage                                 642736                       # Number of bytes of host memory used
host_seconds                                     0.14                       # Real time elapsed on the host
sim_insts                                       10782                       # Number of instructions simulated
sim_ops                                         12615                       # Number of ops (including micro ops) simulated
system.voltage_domain.voltage                       1                       # Voltage in Volts
system.clk_domain.clock                          1000                       # Clock period in ticks
system.mem_ctrls.bytes_read::cpu.inst           34432                       # Number of bytes read from this memory
system.mem_ctrls.bytes_read::cpu.data           41856                       # Number of bytes read from this memory
system.mem_ctrls.bytes_read::total              76288                       # Number of bytes read from this memory
system.mem_ctrls.bytes_inst_read::cpu.inst        34432                       # Number of instructions bytes read from this memory
system.mem_ctrls.bytes_inst_read::total         34432                       # Number of instructions bytes read from this memory
system.mem_ctrls.bytes_written::writebacks        14528                       # Number of bytes written to this memory
system.mem_ctrls.bytes_written::total           14528                       # Number of bytes written to this memory
system.mem_ctrls.num_reads::cpu.inst              538                       # Number of read requests responded to by this memory
system.mem_ctrls.num_reads::cpu.data              654                       # Number of read requests responded to by this memory
system.mem_ctrls.num_reads::total                1192                       # Number of read requests responded to by this memory
system.mem_ctrls.num_writes::writebacks           227                       # Number of write requests responded to by this memory
system.mem_ctrls.num_writes::total                227                       # Number of write requests responded to by this memory
system.mem_ctrls.bw_read::cpu.inst          951239053                       # Total read bandwidth from this memory (bytes/s)
system.mem_ctrls.bw_read::cpu.data         1156338923                       # Total read bandwidth from this memory (bytes/s)
system.mem_ctrls.bw_read::total            2107577976                       # Total read bandwidth from this memory (bytes/s)
system.mem_ctrls.bw_inst_read::cpu.inst     951239053                       # Instruction read bandwidth from this memory (bytes/s)
system.mem_ctrls.bw_inst_read::total        951239053                       # Instruction read bandwidth from this memory (bytes/s)
system.mem_ctrls.bw_write::writebacks       401359229                       # Write bandwidth from this memory (bytes/s)
system.mem_ctrls.bw_write::total            401359229                       # Write bandwidth from this memory (bytes/s)
system.mem_ctrls.bw_total::writebacks       401359229                       # Total bandwidth to/from this memory (bytes/s)
system.mem_ctrls.bw_total::cpu.inst         951239053                       # Total bandwidth to/from this memory (bytes/s)
system.mem_ctrls.bw_total::cpu.data        1156338923                       # Total bandwidth to/from this memory (bytes/s)
system.mem_ctrls.bw_total::total           2508937205                       # Total bandwidth to/from this memory (bytes/s)
system.mem_ctrls.readReqs                        1194                       # Number of read requests accepted
system.mem_ctrls.writeReqs                        227                       # Number of write requests accepted
system.mem_ctrls.readBursts                      1194                       # Number of DRAM read bursts, including those serviced by the write queue
system.mem_ctrls.writeBursts                      227                       # Number of DRAM write bursts, including those merged in the write queue
system.mem_ctrls.bytesReadDRAM                  65728                       # Total number of bytes read from DRAM
system.mem_ctrls.bytesReadWrQ                   10688                       # Total number of bytes read from write queue
system.mem_ctrls.bytesWritten                    7296                       # Total number of bytes written to DRAM
system.mem_ctrls.bytesReadSys                   76416                       # Total read bytes from the system interface side
system.mem_ctrls.bytesWrittenSys                14528                       # Total written bytes from the system interface side
system.mem_ctrls.servicedByWrQ                    167                       # Number of DRAM read bursts serviced by the write queue
system.mem_ctrls.mergedWrBursts                    91                       # Number of DRAM write bursts merged with an existing one
system.mem_ctrls.neitherReadNorWriteReqs            0                       # Number of requests that are neither read nor write
system.mem_ctrls.perBankRdBursts::0                91                       # Per bank write bursts
system.mem_ctrls.perBankRdBursts::1                 4                       # Per bank write bursts
system.mem_ctrls.perBankRdBursts::2                32                       # Per bank write bursts
system.mem_ctrls.perBankRdBursts::3                95                       # Per bank write bursts
system.mem_ctrls.perBankRdBursts::4               165                       # Per bank write bursts
system.mem_ctrls.perBankRdBursts::5                92                       # Per bank write bursts
system.mem_ctrls.perBankRdBursts::6               127                       # Per bank write bursts
system.mem_ctrls.perBankRdBursts::7                68                       # Per bank write bursts
system.mem_ctrls.perBankRdBursts::8                39                       # Per bank write bursts
system.mem_ctrls.perBankRdBursts::9               102                       # Per bank write bursts
system.mem_ctrls.perBankRdBursts::10               36                       # Per bank write bursts
system.mem_ctrls.perBankRdBursts::11               19                       # Per bank write bursts
system.mem_ctrls.perBankRdBursts::12               36                       # Per bank write bursts
system.mem_ctrls.perBankRdBursts::13               32                       # Per bank write bursts
system.mem_ctrls.perBankRdBursts::14               78                       # Per bank write bursts
system.mem_ctrls.perBankRdBursts::15               11                       # Per bank write bursts
system.mem_ctrls.perBankWrBursts::0                 0                       # Per bank write bursts
system.mem_ctrls.perBankWrBursts::1                 0                       # Per bank write bursts
system.mem_ctrls.perBankWrBursts::2                 0                       # Per bank write bursts
system.mem_ctrls.perBankWrBursts::3                 4                       # Per bank write bursts
system.mem_ctrls.perBankWrBursts::4                53                       # Per bank write bursts
system.mem_ctrls.perBankWrBursts::5                36                       # Per bank write bursts
system.mem_ctrls.perBankWrBursts::6                17                       # Per bank write bursts
system.mem_ctrls.perBankWrBursts::7                 4                       # Per bank write bursts
system.mem_ctrls.perBankWrBursts::8                 0                       # Per bank write bursts
system.mem_ctrls.perBankWrBursts::9                 0                       # Per bank write bursts
system.mem_ctrls.perBankWrBursts::10                0                       # Per bank write bursts
system.mem_ctrls.perBankWrBursts::11                0                       # Per bank write bursts
system.mem_ctrls.perBankWrBursts::12                0                       # Per bank write bursts
system.mem_ctrls.perBankWrBursts::13                0                       # Per bank write bursts
system.mem_ctrls.perBankWrBursts::14                0                       # Per bank write bursts
system.mem_ctrls.perBankWrBursts::15                0                       # Per bank write bursts
system.mem_ctrls.numRdRetry                         0                       # Number of times read queue was full causing retry
system.mem_ctrls.numWrRetry                         0                       # Number of times write queue was full causing retry
system.mem_ctrls.totGap                      36190500                       # Total gap between requests
system.mem_ctrls.readPktSize::0                     0                       # Read request sizes (log2)
system.mem_ctrls.readPktSize::1                     0                       # Read request sizes (log2)
system.mem_ctrls.readPktSize::2                     0                       # Read request sizes (log2)
system.mem_ctrls.readPktSize::3                     0                       # Read request sizes (log2)
system.mem_ctrls.readPktSize::4                     0                       # Read request sizes (log2)
system.mem_ctrls.readPktSize::5                     0                       # Read request sizes (log2)
system.mem_ctrls.readPktSize::6                  1194                       # Read request sizes (log2)
system.mem_ctrls.writePktSize::0                    0                       # Write request sizes (log2)
system.mem_ctrls.writePktSize::1                    0                       # Write request sizes (log2)
system.mem_ctrls.writePktSize::2                    0                       # Write request sizes (log2)
system.mem_ctrls.writePktSize::3                    0                       # Write request sizes (log2)
system.mem_ctrls.writePktSize::4                    0                       # Write request sizes (log2)
system.mem_ctrls.writePktSize::5                    0                       # Write request sizes (log2)
system.mem_ctrls.writePktSize::6                  227                       # Write request sizes (log2)
system.mem_ctrls.rdQLenPdf::0                     519                       # What read queue length does an incoming req see
system.mem_ctrls.rdQLenPdf::1                     321                       # What read queue length does an incoming req see
system.mem_ctrls.rdQLenPdf::2                     135                       # What read queue length does an incoming req see
system.mem_ctrls.rdQLenPdf::3                      38                       # What read queue length does an incoming req see
system.mem_ctrls.rdQLenPdf::4                      11                       # What read queue length does an incoming req see
system.mem_ctrls.rdQLenPdf::5                       3                       # What read queue length does an incoming req see
system.mem_ctrls.rdQLenPdf::6                       0                       # What read queue length does an incoming req see
system.mem_ctrls.rdQLenPdf::7                       0                       # What read queue length does an incoming req see
system.mem_ctrls.rdQLenPdf::8                       0                       # What read queue length does an incoming req see
system.mem_ctrls.rdQLenPdf::9                       0                       # What read queue length does an incoming req see
system.mem_ctrls.rdQLenPdf::10                      0                       # What read queue length does an incoming req see
system.mem_ctrls.rdQLenPdf::11                      0                       # What read queue length does an incoming req see
system.mem_ctrls.rdQLenPdf::12                      0                       # What read queue length does an incoming req see
system.mem_ctrls.rdQLenPdf::13                      0                       # What read queue length does an incoming req see
system.mem_ctrls.rdQLenPdf::14                      0                       # What read queue length does an incoming req see
system.mem_ctrls.rdQLenPdf::15                      0                       # What read queue length does an incoming req see
system.mem_ctrls.rdQLenPdf::16                      0                       # What read queue length does an incoming req see
system.mem_ctrls.rdQLenPdf::17                      0                       # What read queue length does an incoming req see
system.mem_ctrls.rdQLenPdf::18                      0                       # What read queue length does an incoming req see
system.mem_ctrls.rdQLenPdf::19                      0                       # What read queue length does an incoming req see
system.mem_ctrls.rdQLenPdf::20                      0                       # What read queue length does an incoming req see
system.mem_ctrls.rdQLenPdf::21                      0                       # What read queue length does an incoming req see
system.mem_ctrls.rdQLenPdf::22                      0                       # What read queue length does an incoming req see
system.mem_ctrls.rdQLenPdf::23                      0                       # What read queue length does an incoming req see
system.mem_ctrls.rdQLenPdf::24                      0                       # What read queue length does an incoming req see
system.mem_ctrls.rdQLenPdf::25                      0                       # What read queue length does an incoming req see
system.mem_ctrls.rdQLenPdf::26                      0                       # What read queue length does an incoming req see
system.mem_ctrls.rdQLenPdf::27                      0                       # What read queue length does an incoming req see
system.mem_ctrls.rdQLenPdf::28                      0                       # What read queue length does an incoming req see
system.mem_ctrls.rdQLenPdf::29                      0                       # What read queue length does an incoming req see
system.mem_ctrls.rdQLenPdf::30                      0                       # What read queue length does an incoming req see
system.mem_ctrls.rdQLenPdf::31                      0                       # What read queue length does an incoming req see
system.mem_ctrls.wrQLenPdf::0                       1                       # What write queue length does an incoming req see
system.mem_ctrls.wrQLenPdf::1                       1                       # What write queue length does an incoming req see
system.mem_ctrls.wrQLenPdf::2                       1                       # What write queue length does an incoming req see
system.mem_ctrls.wrQLenPdf::3                       1                       # What write queue length does an incoming req see
system.mem_ctrls.wrQLenPdf::4                       1                       # What write queue length does an incoming req see
system.mem_ctrls.wrQLenPdf::5                       1                       # What write queue length does an incoming req see
system.mem_ctrls.wrQLenPdf::6                       1                       # What write queue length does an incoming req see
system.mem_ctrls.wrQLenPdf::7                       1                       # What write queue length does an incoming req see
system.mem_ctrls.wrQLenPdf::8                       1                       # What write queue length does an incoming req see
system.mem_ctrls.wrQLenPdf::9                       1                       # What write queue length does an incoming req see
system.mem_ctrls.wrQLenPdf::10                      1                       # What write queue length does an incoming req see
system.mem_ctrls.wrQLenPdf::11                      1                       # What write queue length does an incoming req see
system.mem_ctrls.wrQLenPdf::12                      1                       # What write queue length does an incoming req see
system.mem_ctrls.wrQLenPdf::13                      1                       # What write queue length does an incoming req see
system.mem_ctrls.wrQLenPdf::14                      1                       # What write queue length does an incoming req see
system.mem_ctrls.wrQLenPdf::15                      2                       # What write queue length does an incoming req see
system.mem_ctrls.wrQLenPdf::16                      2                       # What write queue length does an incoming req see
system.mem_ctrls.wrQLenPdf::17                      6                       # What write queue length does an incoming req see
system.mem_ctrls.wrQLenPdf::18                      7                       # What write queue length does an incoming req see
system.mem_ctrls.wrQLenPdf::19                      8                       # What write queue length does an incoming req see
system.mem_ctrls.wrQLenPdf::20                      9                       # What write queue length does an incoming req see
system.mem_ctrls.wrQLenPdf::21                      8                       # What write queue length does an incoming req see
system.mem_ctrls.wrQLenPdf::22                      8                       # What write queue length does an incoming req see
system.mem_ctrls.wrQLenPdf::23                      7                       # What write queue length does an incoming req see
system.mem_ctrls.wrQLenPdf::24                      7                       # What write queue length does an incoming req see
system.mem_ctrls.wrQLenPdf::25                      7                       # What write queue length does an incoming req see
system.mem_ctrls.wrQLenPdf::26                      7                       # What write queue length does an incoming req see
system.mem_ctrls.wrQLenPdf::27                      7                       # What write queue length does an incoming req see
system.mem_ctrls.wrQLenPdf::28                      8                       # What write queue length does an incoming req see
system.mem_ctrls.wrQLenPdf::29                      7                       # What write queue length does an incoming req see
system.mem_ctrls.wrQLenPdf::30                      7                       # What write queue length does an incoming req see
system.mem_ctrls.wrQLenPdf::31                      7                       # What write queue length does an incoming req see
system.mem_ctrls.wrQLenPdf::32                      7                       # What write queue length does an incoming req see
system.mem_ctrls.wrQLenPdf::33                      0                       # What write queue length does an incoming req see
system.mem_ctrls.wrQLenPdf::34                      0                       # What write queue length does an incoming req see
system.mem_ctrls.wrQLenPdf::35                      0                       # What write queue length does an incoming req see
system.mem_ctrls.wrQLenPdf::36                      0                       # What write queue length does an incoming req see
system.mem_ctrls.wrQLenPdf::37                      0                       # What write queue length does an incoming req see
system.mem_ctrls.wrQLenPdf::38                      0                       # What write queue length does an incoming req see
system.mem_ctrls.wrQLenPdf::39                      0                       # What write queue length does an incoming req see
system.mem_ctrls.wrQLenPdf::40                      0                       # What write queue length does an incoming req see
system.mem_ctrls.wrQLenPdf::41                      0                       # What write queue length does an incoming req see
system.mem_ctrls.wrQLenPdf::42                      0                       # What write queue length does an incoming req see
system.mem_ctrls.wrQLenPdf::43                      0                       # What write queue length does an incoming req see
system.mem_ctrls.wrQLenPdf::44                      0                       # What write queue length does an incoming req see
system.mem_ctrls.wrQLenPdf::45                      0                       # What write queue length does an incoming req see
system.mem_ctrls.wrQLenPdf::46                      0                       # What write queue length does an incoming req see
system.mem_ctrls.wrQLenPdf::47                      0                       # What write queue length does an incoming req see
system.mem_ctrls.wrQLenPdf::48                      0                       # What write queue length does an incoming req see
system.mem_ctrls.wrQLenPdf::49                      0                       # What write queue length does an incoming req see
system.mem_ctrls.wrQLenPdf::50                      0                       # What write queue length does an incoming req see
system.mem_ctrls.wrQLenPdf::51                      0                       # What write queue length does an incoming req see
system.mem_ctrls.wrQLenPdf::52                      0                       # What write queue length does an incoming req see
system.mem_ctrls.wrQLenPdf::53                      0                       # What write queue length does an incoming req see
system.mem_ctrls.wrQLenPdf::54                      0                       # What write queue length does an incoming req see
system.mem_ctrls.wrQLenPdf::55                      0                       # What write queue length does an incoming req see
system.mem_ctrls.wrQLenPdf::56                      0                       # What write queue length does an incoming req see
system.mem_ctrls.wrQLenPdf::57                      0                       # What write queue length does an incoming req see
system.mem_ctrls.wrQLenPdf::58                      0                       # What write queue length does an incoming req see
system.mem_ctrls.wrQLenPdf::59                      0                       # What write queue length does an incoming req see
system.mem_ctrls.wrQLenPdf::60                      0                       # What write queue length does an incoming req see
system.mem_ctrls.wrQLenPdf::61                      0                       # What write queue length does an incoming req see
system.mem_ctrls.wrQLenPdf::62                      0                       # What write queue length does an incoming req see
system.mem_ctrls.wrQLenPdf::63                      0                       # What write queue length does an incoming req see
system.mem_ctrls.bytesPerActivate::samples          195                       # Bytes accessed per row activation
system.mem_ctrls.bytesPerActivate::mean    362.010256                       # Bytes accessed per row activation
system.mem_ctrls.bytesPerActivate::gmean   223.946523                       # Bytes accessed per row activation
system.mem_ctrls.bytesPerActivate::stdev   344.466089                       # Bytes accessed per row activation
system.mem_ctrls.bytesPerActivate::0-127           54     27.69%     27.69% # Bytes accessed per row activation
system.mem_ctrls.bytesPerActivate::128-255           48     24.62%     52.31% # Bytes accessed per row activation
system.mem_ctrls.bytesPerActivate::256-383           25     12.82%     65.13% # Bytes accessed per row activation
system.mem_ctrls.bytesPerActivate::384-511           16      8.21%     73.33% # Bytes accessed per row activation
system.mem_ctrls.bytesPerActivate::512-639            9      4.62%     77.95% # Bytes accessed per row activation
system.mem_ctrls.bytesPerActivate::640-767            3      1.54%     79.49% # Bytes accessed per row activation
system.mem_ctrls.bytesPerActivate::768-895            5      2.56%     82.05% # Bytes accessed per row activation
system.mem_ctrls.bytesPerActivate::896-1023            7      3.59%     85.64% # Bytes accessed per row activation
system.mem_ctrls.bytesPerActivate::1024-1151           28     14.36%    100.00% # Bytes accessed per row activation
system.mem_ctrls.bytesPerActivate::total          195                       # Bytes accessed per row activation
system.mem_ctrls.rdPerTurnAround::samples            7                       # Reads before turning the bus around for writes
system.mem_ctrls.rdPerTurnAround::mean     138.285714                       # Reads before turning the bus around for writes
system.mem_ctrls.rdPerTurnAround::gmean    134.058317                       # Reads before turning the bus around for writes
system.mem_ctrls.rdPerTurnAround::stdev     37.357348                       # Reads before turning the bus around for writes
system.mem_ctrls.rdPerTurnAround::96-103            2     28.57%     28.57% # Reads before turning the bus around for writes
system.mem_ctrls.rdPerTurnAround::104-111            1     14.29%     42.86% # Reads before turning the bus around for writes
system.mem_ctrls.rdPerTurnAround::128-135            1     14.29%     57.14% # Reads before turning the bus around for writes
system.mem_ctrls.rdPerTurnAround::160-167            2     28.57%     85.71% # Reads before turning the bus around for writes
system.mem_ctrls.rdPerTurnAround::192-199            1     14.29%    100.00% # Reads before turning the bus around for writes
system.mem_ctrls.rdPerTurnAround::total             7                       # Reads before turning the bus around for writes
system.mem_ctrls.wrPerTurnAround::samples            7                       # Writes before turning the bus around for reads
system.mem_ctrls.wrPerTurnAround::mean      16.285714                       # Writes before turning the bus around for reads
system.mem_ctrls.wrPerTurnAround::gmean     16.271496                       # Writes before turning the bus around for reads
system.mem_ctrls.wrPerTurnAround::stdev      0.755929                       # Writes before turning the bus around for reads
system.mem_ctrls.wrPerTurnAround::16                6     85.71%     85.71% # Writes before turning the bus around for reads
system.mem_ctrls.wrPerTurnAround::18                1     14.29%    100.00% # Writes before turning the bus around for reads
system.mem_ctrls.wrPerTurnAround::total             7                       # Writes before turning the bus around for reads
system.mem_ctrls.totQLat                     12404500                       # Total ticks spent queuing
system.mem_ctrls.totMemAccLat                31660750                       # Total ticks spent from burst creation until serviced by the DRAM
system.mem_ctrls.totBusLat                    5135000                       # Total ticks spent in databus transfers
system.mem_ctrls.avgQLat                     12078.38                       # Average queueing delay per DRAM burst
system.mem_ctrls.avgBusLat                    5000.00                       # Average bus latency per DRAM burst
system.mem_ctrls.avgMemAccLat                30828.38                       # Average memory access latency per DRAM burst
system.mem_ctrls.avgRdBW                      1815.84                       # Average DRAM read bandwidth in MiByte/s
system.mem_ctrls.avgWrBW                       201.56                       # Average achieved write bandwidth in MiByte/s
system.mem_ctrls.avgRdBWSys                   2111.11                       # Average system read bandwidth in MiByte/s
system.mem_ctrls.avgWrBWSys                    401.36                       # Average system write bandwidth in MiByte/s
system.mem_ctrls.peakBW                      12800.00                       # Theoretical peak bandwidth in MiByte/s
system.mem_ctrls.busUtil                        15.76                       # Data bus utilization in percentage
system.mem_ctrls.busUtilRead                    14.19                       # Data bus utilization in percentage for reads
system.mem_ctrls.busUtilWrite                    1.57                       # Data bus utilization in percentage for writes
system.mem_ctrls.avgRdQLen                       1.95                       # Average read queue length when enqueuing
system.mem_ctrls.avgWrQLen                      23.06                       # Average write queue length when enqueuing
system.mem_ctrls.readRowHits                      823                       # Number of row buffer hits during reads
system.mem_ctrls.writeRowHits                     112                       # Number of row buffer hits during writes
system.mem_ctrls.readRowHitRate                 80.14                       # Row buffer hit rate for reads
system.mem_ctrls.writeRowHitRate                82.35                       # Row buffer hit rate for writes
system.mem_ctrls.avgGap                      25468.33                       # Average gap between requests
system.mem_ctrls.pageHitRate                    80.40                       # Row buffer hit rate, read and write combined
system.mem_ctrls_0.actEnergy                   854280                       # Energy for activate commands per rank (pJ)
system.mem_ctrls_0.preEnergy                   466125                       # Energy for precharge commands per rank (pJ)
system.mem_ctrls_0.readEnergy                 4251000                       # Energy for read commands per rank (pJ)
system.mem_ctrls_0.writeEnergy                 635040                       # Energy for write commands per rank (pJ)
system.mem_ctrls_0.refreshEnergy              2034240                       # Energy for refresh commands per rank (pJ)
system.mem_ctrls_0.actBackEnergy             21426300                       # Energy for active background per rank (pJ)
system.mem_ctrls_0.preBackEnergy                60000                       # Energy for precharge background per rank (pJ)
system.mem_ctrls_0.totalEnergy               29726985                       # Total energy per rank (pJ)
system.mem_ctrls_0.averagePower            945.966110                       # Core power per rank (mW)
system.mem_ctrls_0.memoryStateTime::IDLE         2750                       # Time in different power states
system.mem_ctrls_0.memoryStateTime::REF       1040000                       # Time in different power states
system.mem_ctrls_0.memoryStateTime::PRE_PDN            0                       # Time in different power states
system.mem_ctrls_0.memoryStateTime::ACT      30395250                       # Time in different power states
system.mem_ctrls_0.memoryStateTime::ACT_PDN            0                       # Time in different power states
system.mem_ctrls_1.actEnergy                   453600                       # Energy for activate commands per rank (pJ)
system.mem_ctrls_1.preEnergy                   247500                       # Energy for precharge commands per rank (pJ)
system.mem_ctrls_1.readEnergy                 2636400                       # Energy for read commands per rank (pJ)
system.mem_ctrls_1.writeEnergy                      0                       # Energy for write commands per rank (pJ)
system.mem_ctrls_1.refreshEnergy              2034240                       # Energy for refresh commands per rank (pJ)
system.mem_ctrls_1.actBackEnergy             21200580                       # Energy for active background per rank (pJ)
system.mem_ctrls_1.preBackEnergy               246000                       # Energy for precharge background per rank (pJ)
system.mem_ctrls_1.totalEnergy               26818320                       # Total energy per rank (pJ)
system.mem_ctrls_1.averagePower            853.950645                       # Core power per rank (mW)
system.mem_ctrls_1.memoryStateTime::IDLE       495750                       # Time in different power states
system.mem_ctrls_1.memoryStateTime::REF       1040000                       # Time in different power states
system.mem_ctrls_1.memoryStateTime::PRE_PDN            0                       # Time in different power states
system.mem_ctrls_1.memoryStateTime::ACT      30120000                       # Time in different power states
system.mem_ctrls_1.memoryStateTime::ACT_PDN            0                       # Time in different power states
system.cpu.branchPred.lookups                    5464                       # Number of BP lookups
system.cpu.branchPred.condPredicted              3634                       # Number of conditional branches predicted
system.cpu.branchPred.condIncorrect              1004                       # Number of conditional branches incorrect
system.cpu.branchPred.BTBLookups                 1573                       # Number of BTB lookups
system.cpu.branchPred.BTBHits                     933                       # Number of BTB hits
system.cpu.branchPred.BTBCorrect                    0                       # Number of correct BTB predictions (this stat may not work properly.
system.cpu.branchPred.BTBHitPct             59.313414                       # BTB Hit Percentage
system.cpu.branchPred.usedRAS                     529                       # Number of times the RAS was used to get a target.
system.cpu.branchPred.RASInCorrect                 46                       # Number of incorrect RAS predictions.
system.cpu_voltage_domain.voltage                   1                       # Voltage in Volts
system.cpu_clk_domain.clock                       500                       # Clock period in ticks
system.cpu.dstage2_mmu.stage2_tlb.walker.walks            0                       # Table walker walks requested
system.cpu.dstage2_mmu.stage2_tlb.walker.walkRequestOrigin_Requested::Data            0                       # Table walker requests started/completed, data/inst
system.cpu.dstage2_mmu.stage2_tlb.walker.walkRequestOrigin_Requested::Inst            0                       # Table walker requests started/completed, data/inst
system.cpu.dstage2_mmu.stage2_tlb.walker.walkRequestOrigin_Requested::total            0                       # Table walker requests started/completed, data/inst
system.cpu.dstage2_mmu.stage2_tlb.walker.walkRequestOrigin_Completed::Data            0                       # Table walker requests started/completed, data/inst
system.cpu.dstage2_mmu.stage2_tlb.walker.walkRequestOrigin_Completed::Inst            0                       # Table walker requests started/completed, data/inst
system.cpu.dstage2_mmu.stage2_tlb.walker.walkRequestOrigin_Completed::total            0                       # Table walker requests started/completed, data/inst
system.cpu.dstage2_mmu.stage2_tlb.walker.walkRequestOrigin::total            0                       # Table walker requests started/completed, data/inst
system.cpu.dstage2_mmu.stage2_tlb.inst_hits            0                       # ITB inst hits
system.cpu.dstage2_mmu.stage2_tlb.inst_misses            0                       # ITB inst misses
system.cpu.dstage2_mmu.stage2_tlb.read_hits            0                       # DTB read hits
system.cpu.dstage2_mmu.stage2_tlb.read_misses            0                       # DTB read misses
system.cpu.dstage2_mmu.stage2_tlb.write_hits            0                       # DTB write hits
system.cpu.dstage2_mmu.stage2_tlb.write_misses            0                       # DTB write misses
system.cpu.dstage2_mmu.stage2_tlb.flush_tlb            0                       # Number of times complete TLB was flushed
system.cpu.dstage2_mmu.stage2_tlb.flush_tlb_mva            0                       # Number of times TLB was flushed by MVA
system.cpu.dstage2_mmu.stage2_tlb.flush_tlb_mva_asid            0                       # Number of times TLB was flushed by MVA & ASID
system.cpu.dstage2_mmu.stage2_tlb.flush_tlb_asid            0                       # Number of times TLB was flushed by ASID
system.cpu.dstage2_mmu.stage2_tlb.flush_entries            0                       # Number of entries that have been flushed from TLB
system.cpu.dstage2_mmu.stage2_tlb.align_faults            0                       # Number of TLB faults due to alignment restrictions
system.cpu.dstage2_mmu.stage2_tlb.prefetch_faults            0                       # Number of TLB faults due to prefetch
system.cpu.dstage2_mmu.stage2_tlb.domain_faults            0                       # Number of TLB faults due to domain restrictions
system.cpu.dstage2_mmu.stage2_tlb.perms_faults            0                       # Number of TLB faults due to permissions restrictions
system.cpu.dstage2_mmu.stage2_tlb.read_accesses            0                       # DTB read accesses
system.cpu.dstage2_mmu.stage2_tlb.write_accesses            0                       # DTB write accesses
system.cpu.dstage2_mmu.stage2_tlb.inst_accesses            0                       # ITB inst accesses
system.cpu.dstage2_mmu.stage2_tlb.hits              0                       # DTB hits
system.cpu.dstage2_mmu.stage2_tlb.misses            0                       # DTB misses
system.cpu.dstage2_mmu.stage2_tlb.accesses            0                       # DTB accesses
system.cpu.dtb.walker.walks                         0                       # Table walker walks requested
system.cpu.dtb.walker.walkRequestOrigin_Requested::Data            0                       # Table walker requests started/completed, data/inst
system.cpu.dtb.walker.walkRequestOrigin_Requested::Inst            0                       # Table walker requests started/completed, data/inst
system.cpu.dtb.walker.walkRequestOrigin_Requested::total            0                       # Table walker requests started/completed, data/inst
system.cpu.dtb.walker.walkRequestOrigin_Completed::Data            0                       # Table walker requests started/completed, data/inst
system.cpu.dtb.walker.walkRequestOrigin_Completed::Inst            0                       # Table walker requests started/completed, data/inst
system.cpu.dtb.walker.walkRequestOrigin_Completed::total            0                       # Table walker requests started/completed, data/inst
system.cpu.dtb.walker.walkRequestOrigin::total            0                       # Table walker requests started/completed, data/inst
system.cpu.dtb.inst_hits                            0                       # ITB inst hits
system.cpu.dtb.inst_misses                          0                       # ITB inst misses
system.cpu.dtb.read_hits                            0                       # DTB read hits
system.cpu.dtb.read_misses                          0                       # DTB read misses
system.cpu.dtb.write_hits                           0                       # DTB write hits
system.cpu.dtb.write_misses                         0                       # DTB write misses
system.cpu.dtb.flush_tlb                            0                       # Number of times complete TLB was flushed
system.cpu.dtb.flush_tlb_mva                        0                       # Number of times TLB was flushed by MVA
system.cpu.dtb.flush_tlb_mva_asid                   0                       # Number of times TLB was flushed by MVA & ASID
system.cpu.dtb.flush_tlb_asid                       0                       # Number of times TLB was flushed by ASID
system.cpu.dtb.flush_entries                        0                       # Number of entries that have been flushed from TLB
system.cpu.dtb.align_faults                         0                       # Number of TLB faults due to alignment restrictions
system.cpu.dtb.prefetch_faults                      0                       # Number of TLB faults due to prefetch
system.cpu.dtb.domain_faults                        0                       # Number of TLB faults due to domain restrictions
system.cpu.dtb.perms_faults                         0                       # Number of TLB faults due to permissions restrictions
system.cpu.dtb.read_accesses                        0                       # DTB read accesses
system.cpu.dtb.write_accesses                       0                       # DTB write accesses
system.cpu.dtb.inst_accesses                        0                       # ITB inst accesses
system.cpu.dtb.hits                                 0                       # DTB hits
system.cpu.dtb.misses                               0                       # DTB misses
system.cpu.dtb.accesses                             0                       # DTB accesses
system.cpu.istage2_mmu.stage2_tlb.walker.walks            0                       # Table walker walks requested
system.cpu.istage2_mmu.stage2_tlb.walker.walkRequestOrigin_Requested::Data            0                       # Table walker requests started/completed, data/inst
system.cpu.istage2_mmu.stage2_tlb.walker.walkRequestOrigin_Requested::Inst            0                       # Table walker requests started/completed, data/inst
system.cpu.istage2_mmu.stage2_tlb.walker.walkRequestOrigin_Requested::total            0                       # Table walker requests started/completed, data/inst
system.cpu.istage2_mmu.stage2_tlb.walker.walkRequestOrigin_Completed::Data            0                       # Table walker requests started/completed, data/inst
system.cpu.istage2_mmu.stage2_tlb.walker.walkRequestOrigin_Completed::Inst            0                       # Table walker requests started/completed, data/inst
system.cpu.istage2_mmu.stage2_tlb.walker.walkRequestOrigin_Completed::total            0                       # Table walker requests started/completed, data/inst
system.cpu.istage2_mmu.stage2_tlb.walker.walkRequestOrigin::total            0                       # Table walker requests started/completed, data/inst
system.cpu.istage2_mmu.stage2_tlb.inst_hits            0                       # ITB inst hits
system.cpu.istage2_mmu.stage2_tlb.inst_misses            0                       # ITB inst misses
system.cpu.istage2_mmu.stage2_tlb.read_hits            0                       # DTB read hits
system.cpu.istage2_mmu.stage2_tlb.read_misses            0                       # DTB read misses
system.cpu.istage2_mmu.stage2_tlb.write_hits            0                       # DTB write hits
system.cpu.istage2_mmu.stage2_tlb.write_misses            0                       # DTB write misses
system.cpu.istage2_mmu.stage2_tlb.flush_tlb            0                       # Number of times complete TLB was flushed
system.cpu.istage2_mmu.stage2_tlb.flush_tlb_mva            0                       # Number of times TLB was flushed by MVA
system.cpu.istage2_mmu.stage2_tlb.flush_tlb_mva_asid            0                       # Number of times TLB was flushed by MVA & ASID
system.cpu.istage2_mmu.stage2_tlb.flush_tlb_asid            0                       # Number of times TLB was flushed by ASID
system.cpu.istage2_mmu.stage2_tlb.flush_entries            0                       # Number of entries that have been flushed from TLB
system.cpu.istage2_mmu.stage2_tlb.align_faults            0                       # Number of TLB faults due to alignment restrictions
system.cpu.istage2_mmu.stage2_tlb.prefetch_faults            0                       # Number of TLB faults due to prefetch
system.cpu.istage2_mmu.stage2_tlb.domain_faults            0                       # Number of TLB faults due to domain restrictions
system.cpu.istage2_mmu.stage2_tlb.perms_faults            0                       # Number of TLB faults due to permissions restrictions
system.cpu.istage2_mmu.stage2_tlb.read_accesses            0                       # DTB read accesses
system.cpu.istage2_mmu.stage2_tlb.write_accesses            0                       # DTB write accesses
system.cpu.istage2_mmu.stage2_tlb.inst_accesses            0                       # ITB inst accesses
system.cpu.istage2_mmu.stage2_tlb.hits              0                       # DTB hits
system.cpu.istage2_mmu.stage2_tlb.misses            0                       # DTB misses
system.cpu.istage2_mmu.stage2_tlb.accesses            0                       # DTB accesses
system.cpu.itb.walker.walks                         0                       # Table walker walks requested
system.cpu.itb.walker.walkRequestOrigin_Requested::Data            0                       # Table walker requests started/completed, data/inst
system.cpu.itb.walker.walkRequestOrigin_Requested::Inst            0                       # Table walker requests started/completed, data/inst
system.cpu.itb.walker.walkRequestOrigin_Requested::total            0                       # Table walker requests started/completed, data/inst
system.cpu.itb.walker.walkRequestOrigin_Completed::Data            0                       # Table walker requests started/completed, data/inst
system.cpu.itb.walker.walkRequestOrigin_Completed::Inst            0                       # Table walker requests started/completed, data/inst
system.cpu.itb.walker.walkRequestOrigin_Completed::total            0                       # Table walker requests started/completed, data/inst
system.cpu.itb.walker.walkRequestOrigin::total            0                       # Table walker requests started/completed, data/inst
system.cpu.itb.inst_hits                            0                       # ITB inst hits
system.cpu.itb.inst_misses                          0                       # ITB inst misses
system.cpu.itb.read_hits                            0                       # DTB read hits
system.cpu.itb.read_misses                          0                       # DTB read misses
system.cpu.itb.write_hits                           0                       # DTB write hits
system.cpu.itb.write_misses                         0                       # DTB write misses
system.cpu.itb.flush_tlb                            0                       # Number of times complete TLB was flushed
system.cpu.itb.flush_tlb_mva                        0                       # Number of times TLB was flushed by MVA
system.cpu.itb.flush_tlb_mva_asid                   0                       # Number of times TLB was flushed by MVA & ASID
system.cpu.itb.flush_tlb_asid                       0                       # Number of times TLB was flushed by ASID
system.cpu.itb.flush_entries                        0                       # Number of entries that have been flushed from TLB
system.cpu.itb.align_faults                         0                       # Number of TLB faults due to alignment restrictions
system.cpu.itb.prefetch_faults                      0                       # Number of TLB faults due to prefetch
system.cpu.itb.domain_faults                        0                       # Number of TLB faults due to domain restrictions
system.cpu.itb.perms_faults                         0                       # Number of TLB faults due to permissions restrictions
system.cpu.itb.read_accesses                        0                       # DTB read accesses
system.cpu.itb.write_accesses                       0                       # DTB write accesses
system.cpu.itb.inst_accesses                        0                       # ITB inst accesses
system.cpu.itb.hits                                 0                       # DTB hits
system.cpu.itb.misses                               0                       # DTB misses
system.cpu.itb.accesses                             0                       # DTB accesses
system.cpu.workload.num_syscalls                   12                       # Number of system calls
system.cpu.numCycles                            72395                       # number of cpu cycles simulated
system.cpu.numWorkItemsStarted                      0                       # number of work items this cpu started
system.cpu.numWorkItemsCompleted                    0                       # number of work items this cpu completed
system.cpu.fetch.icacheStallCycles              13171                       # Number of cycles fetch is stalled on an Icache miss
system.cpu.fetch.Insts                          27739                       # Number of instructions fetch has processed
system.cpu.fetch.Branches                        5464                       # Number of branches that fetch encountered
system.cpu.fetch.predictedBranches               1462                       # Number of branches that fetch has predicted taken
system.cpu.fetch.Cycles                         25708                       # Number of cycles fetch has run and was not squashing or blocked
system.cpu.fetch.SquashCycles                    2057                       # Number of cycles fetch has spent squashing
system.cpu.fetch.MiscStallCycles                  140                       # Number of cycles fetch has spent waiting on interrupts, or bad addresses, or out of MSHRs
system.cpu.fetch.PendingTrapStallCycles           278                       # Number of stall cycles due to pending traps
system.cpu.fetch.IcacheWaitRetryStallCycles          712                       # Number of stall cycles due to full MSHR
system.cpu.fetch.CacheLines                      8979                       # Number of cache lines fetched
system.cpu.fetch.IcacheSquashes                   346                       # Number of outstanding Icache misses that were squashed
system.cpu.fetch.rateDist::samples              41037                       # Number of instructions fetched each cycle (Total)
system.cpu.fetch.rateDist::mean              0.783464                       # Number of instructions fetched each cycle (Total)
system.cpu.fetch.rateDist::stdev             1.175109                       # Number of instructions fetched each cycle (Total)
system.cpu.fetch.rateDist::underflows               0      0.00%      0.00% # Number of instructions fetched each cycle (Total)
system.cpu.fetch.rateDist::0                    25939     63.21%     63.21% # Number of instructions fetched each cycle (Total)
system.cpu.fetch.rateDist::1                     5844     14.24%     77.45% # Number of instructions fetched each cycle (Total)
system.cpu.fetch.rateDist::2                     1455      3.55%     81.00% # Number of instructions fetched each cycle (Total)
system.cpu.fetch.rateDist::3                     7799     19.00%    100.00% # Number of instructions fetched each cycle (Total)
system.cpu.fetch.rateDist::overflows                0      0.00%    100.00% # Number of instructions fetched each cycle (Total)
system.cpu.fetch.rateDist::min_value                0                       # Number of instructions fetched each cycle (Total)
system.cpu.fetch.rateDist::max_value                3                       # Number of instructions fetched each cycle (Total)
system.cpu.fetch.rateDist::total                41037                       # Number of instructions fetched each cycle (Total)
system.cpu.fetch.branchRate                  0.075475                       # Number of branch fetches per cycle
system.cpu.fetch.rate                        0.383162                       # Number of inst fetches per cycle
system.cpu.decode.IdleCycles                    12068                       # Number of cycles decode is idle
system.cpu.decode.BlockedCycles                 16586                       # Number of cycles decode is blocked
system.cpu.decode.RunCycles                     11151                       # Number of cycles decode is running
system.cpu.decode.UnblockCycles                   473                       # Number of cycles decode is unblocking
system.cpu.decode.SquashCycles                    759                       # Number of cycles decode is squashing
system.cpu.decode.BranchResolved                  681                       # Number of times decode resolved a branch
system.cpu.decode.BranchMispred                   286                       # Number of times decode detected a branch misprediction
system.cpu.decode.DecodedInsts                  23319                       # Number of instructions handled by decode
system.cpu.decode.SquashedInsts                  2947                       # Number of squashed instructions handled by decode
system.cpu.rename.SquashCycles                    759                       # Number of cycles rename is squashing
system.cpu.rename.IdleCycles                    14306                       # Number of cycles rename is idle
system.cpu.rename.BlockCycles                    9874                       # Number of cycles rename is blocking
system.cpu.rename.serializeStallCycles           4024                       # count of cycles rename stalled for serializing inst
system.cpu.rename.RunCycles                      9299                       # Number of cycles rename is running
system.cpu.rename.UnblockCycles                  2775                       # Number of cycles rename is unblocking
system.cpu.rename.RenamedInsts                  21003                       # Number of instructions processed by rename
system.cpu.rename.SquashedInsts                   867                       # Number of squashed instructions processed by rename
system.cpu.rename.ROBFullEvents                   321                       # Number of times rename has blocked due to ROB full
system.cpu.rename.IQFullEvents                     26                       # Number of times rename has blocked due to IQ full
system.cpu.rename.LQFullEvents                    106                       # Number of times rename has blocked due to LQ full
system.cpu.rename.SQFullEvents                   2209                       # Number of times rename has blocked due to SQ full
system.cpu.rename.RenamedOperands               22264                       # Number of destination operands rename has renamed
system.cpu.rename.RenameLookups                 96089                       # Number of register rename lookups that rename has made
system.cpu.rename.int_rename_lookups            24335                       # Number of integer rename lookups
system.cpu.rename.fp_rename_lookups                16                       # Number of floating rename lookups
system.cpu.rename.CommittedMaps                 13035                       # Number of HB maps that are committed
system.cpu.rename.UndoneMaps                     9229                       # Number of HB maps that are undone due to squashing
system.cpu.rename.serializingInsts                 50                       # count of serializing insts renamed
system.cpu.rename.tempSerializingInsts             50                       # count of temporary serializing insts renamed
system.cpu.rename.skidInsts                      1385                       # count of insts added to the skid buffer
system.cpu.memDep0.insertedLoads                 4010                       # Number of loads inserted to the mem dependence unit.
system.cpu.memDep0.insertedStores                2983                       # Number of stores inserted to the mem dependence unit.
system.cpu.memDep0.conflictingLoads                49                       # Number of conflicting loads.
system.cpu.memDep0.conflictingStores                1                       # Number of conflicting stores.
system.cpu.iq.iqInstsAdded                      19914                       # Number of instructions added to the IQ (excludes non-spec)
system.cpu.iq.iqNonSpecInstsAdded                  76                       # Number of non-speculative instructions added to the IQ
system.cpu.iq.iqInstsIssued                     16850                       # Number of instructions issued
system.cpu.iq.iqSquashedInstsIssued               357                       # Number of squashed instructions issued
system.cpu.iq.iqSquashedInstsExamined            7375                       # Number of squashed instructions iterated over during squash; mainly for profiling
system.cpu.iq.iqSquashedOperandsExamined        19679                       # Number of squashed operands that are examined and possibly removed from graph
system.cpu.iq.iqSquashedNonSpecRemoved             11                       # Number of squashed non-spec instructions that were removed
system.cpu.iq.issued_per_cycle::samples         41037                       # Number of insts issued each cycle
system.cpu.iq.issued_per_cycle::mean         0.410605                       # Number of insts issued each cycle
system.cpu.iq.issued_per_cycle::stdev        0.810715                       # Number of insts issued each cycle
system.cpu.iq.issued_per_cycle::underflows            0      0.00%      0.00% # Number of insts issued each cycle
system.cpu.iq.issued_per_cycle::0               31014     75.58%     75.58% # Number of insts issued each cycle
system.cpu.iq.issued_per_cycle::1                4807     11.71%     87.29% # Number of insts issued each cycle
system.cpu.iq.issued_per_cycle::2                3687      8.98%     96.27% # Number of insts issued each cycle
system.cpu.iq.issued_per_cycle::3                1447      3.53%     99.80% # Number of insts issued each cycle
system.cpu.iq.issued_per_cycle::4                  82      0.20%    100.00% # Number of insts issued each cycle
system.cpu.iq.issued_per_cycle::5                   0      0.00%    100.00% # Number of insts issued each cycle
system.cpu.iq.issued_per_cycle::6                   0      0.00%    100.00% # Number of insts issued each cycle
system.cpu.iq.issued_per_cycle::7                   0      0.00%    100.00% # Number of insts issued each cycle
system.cpu.iq.issued_per_cycle::8                   0      0.00%    100.00% # Number of insts issued each cycle
system.cpu.iq.issued_per_cycle::overflows            0      0.00%    100.00% # Number of insts issued each cycle
system.cpu.iq.issued_per_cycle::min_value            0                       # Number of insts issued each cycle
system.cpu.iq.issued_per_cycle::max_value            4                       # Number of insts issued each cycle
system.cpu.iq.issued_per_cycle::total           41037                       # Number of insts issued each cycle
system.cpu.iq.fu_full::No_OpClass                   0      0.00%      0.00% # attempts to use FU when none available
system.cpu.iq.fu_full::IntAlu                    1011     32.00%     32.00% # attempts to use FU when none available
system.cpu.iq.fu_full::IntMult                      0      0.00%     32.00% # attempts to use FU when none available
system.cpu.iq.fu_full::IntDiv                       0      0.00%     32.00% # attempts to use FU when none available
system.cpu.iq.fu_full::FloatAdd                     0      0.00%     32.00% # attempts to use FU when none available
system.cpu.iq.fu_full::FloatCmp                     0      0.00%     32.00% # attempts to use FU when none available
system.cpu.iq.fu_full::FloatCvt                     0      0.00%     32.00% # attempts to use FU when none available
system.cpu.iq.fu_full::FloatMult                    0      0.00%     32.00% # attempts to use FU when none available
system.cpu.iq.fu_full::FloatDiv                     0      0.00%     32.00% # attempts to use FU when none available
system.cpu.iq.fu_full::FloatSqrt                    0      0.00%     32.00% # attempts to use FU when none available
system.cpu.iq.fu_full::SimdAdd                      0      0.00%     32.00% # attempts to use FU when none available
system.cpu.iq.fu_full::SimdAddAcc                   0      0.00%     32.00% # attempts to use FU when none available
system.cpu.iq.fu_full::SimdAlu                      0      0.00%     32.00% # attempts to use FU when none available
system.cpu.iq.fu_full::SimdCmp                      0      0.00%     32.00% # attempts to use FU when none available
system.cpu.iq.fu_full::SimdCvt                      0      0.00%     32.00% # attempts to use FU when none available
system.cpu.iq.fu_full::SimdMisc                     0      0.00%     32.00% # attempts to use FU when none available
system.cpu.iq.fu_full::SimdMult                     0      0.00%     32.00% # attempts to use FU when none available
system.cpu.iq.fu_full::SimdMultAcc                  0      0.00%     32.00% # attempts to use FU when none available
system.cpu.iq.fu_full::SimdShift                    0      0.00%     32.00% # attempts to use FU when none available
system.cpu.iq.fu_full::SimdShiftAcc                 0      0.00%     32.00% # attempts to use FU when none available
system.cpu.iq.fu_full::SimdSqrt                     0      0.00%     32.00% # attempts to use FU when none available
system.cpu.iq.fu_full::SimdFloatAdd                 0      0.00%     32.00% # attempts to use FU when none available
system.cpu.iq.fu_full::SimdFloatAlu                 0      0.00%     32.00% # attempts to use FU when none available
system.cpu.iq.fu_full::SimdFloatCmp                 0      0.00%     32.00% # attempts to use FU when none available
system.cpu.iq.fu_full::SimdFloatCvt                 0      0.00%     32.00% # attempts to use FU when none available
system.cpu.iq.fu_full::SimdFloatDiv                 0      0.00%     32.00% # attempts to use FU when none available
system.cpu.iq.fu_full::SimdFloatMisc                0      0.00%     32.00% # attempts to use FU when none available
system.cpu.iq.fu_full::SimdFloatMult                0      0.00%     32.00% # attempts to use FU when none available
system.cpu.iq.fu_full::SimdFloatMultAcc             0      0.00%     32.00% # attempts to use FU when none available
system.cpu.iq.fu_full::SimdFloatSqrt                0      0.00%     32.00% # attempts to use FU when none available
system.cpu.iq.fu_full::MemRead                   1010     31.97%     63.98% # attempts to use FU when none available
system.cpu.iq.fu_full::MemWrite                  1138     36.02%    100.00% # attempts to use FU when none available
system.cpu.iq.fu_full::IprAccess                    0      0.00%    100.00% # attempts to use FU when none available
system.cpu.iq.fu_full::InstPrefetch                 0      0.00%    100.00% # attempts to use FU when none available
system.cpu.iq.FU_type_0::No_OpClass                 0      0.00%      0.00% # Type of FU issued
system.cpu.iq.FU_type_0::IntAlu                 10837     64.31%     64.31% # Type of FU issued
system.cpu.iq.FU_type_0::IntMult                    5      0.03%     64.34% # Type of FU issued
system.cpu.iq.FU_type_0::IntDiv                     0      0.00%     64.34% # Type of FU issued
system.cpu.iq.FU_type_0::FloatAdd                   0      0.00%     64.34% # Type of FU issued
system.cpu.iq.FU_type_0::FloatCmp                   0      0.00%     64.34% # Type of FU issued
system.cpu.iq.FU_type_0::FloatCvt                   0      0.00%     64.34% # Type of FU issued
system.cpu.iq.FU_type_0::FloatMult                  0      0.00%     64.34% # Type of FU issued
system.cpu.iq.FU_type_0::FloatDiv                   0      0.00%     64.34% # Type of FU issued
system.cpu.iq.FU_type_0::FloatSqrt                  0      0.00%     64.34% # Type of FU issued
system.cpu.iq.FU_type_0::SimdAdd                    0      0.00%     64.34% # Type of FU issued
system.cpu.iq.FU_type_0::SimdAddAcc                 0      0.00%     64.34% # Type of FU issued
system.cpu.iq.FU_type_0::SimdAlu                    0      0.00%     64.34% # Type of FU issued
system.cpu.iq.FU_type_0::SimdCmp                    0      0.00%     64.34% # Type of FU issued
system.cpu.iq.FU_type_0::SimdCvt                    0      0.00%     64.34% # Type of FU issued
system.cpu.iq.FU_type_0::SimdMisc                   0      0.00%     64.34% # Type of FU issued
system.cpu.iq.FU_type_0::SimdMult                   0      0.00%     64.34% # Type of FU issued
system.cpu.iq.FU_type_0::SimdMultAcc                0      0.00%     64.34% # Type of FU issued
system.cpu.iq.FU_type_0::SimdShift                  0      0.00%     64.34% # Type of FU issued
system.cpu.iq.FU_type_0::SimdShiftAcc               0      0.00%     64.34% # Type of FU issued
system.cpu.iq.FU_type_0::SimdSqrt                   0      0.00%     64.34% # Type of FU issued
system.cpu.iq.FU_type_0::SimdFloatAdd               0      0.00%     64.34% # Type of FU issued
system.cpu.iq.FU_type_0::SimdFloatAlu               0      0.00%     64.34% # Type of FU issued
system.cpu.iq.FU_type_0::SimdFloatCmp               0      0.00%     64.34% # Type of FU issued
system.cpu.iq.FU_type_0::SimdFloatCvt               0      0.00%     64.34% # Type of FU issued
system.cpu.iq.FU_type_0::SimdFloatDiv               0      0.00%     64.34% # Type of FU issued
system.cpu.iq.FU_type_0::SimdFloatMisc              0      0.00%     64.34% # Type of FU issued
system.cpu.iq.FU_type_0::SimdFloatMult              0      0.00%     64.34% # Type of FU issued
system.cpu.iq.FU_type_0::SimdFloatMultAcc            0      0.00%     64.34% # Type of FU issued
system.cpu.iq.FU_type_0::SimdFloatSqrt              0      0.00%     64.34% # Type of FU issued
system.cpu.iq.FU_type_0::MemRead                 3451     20.48%     84.82% # Type of FU issued
system.cpu.iq.FU_type_0::MemWrite                2557     15.18%    100.00% # Type of FU issued
system.cpu.iq.FU_type_0::IprAccess                  0      0.00%    100.00% # Type of FU issued
system.cpu.iq.FU_type_0::InstPrefetch               0      0.00%    100.00% # Type of FU issued
system.cpu.iq.FU_type_0::total                  16850                       # Type of FU issued
system.cpu.iq.rate                           0.232751                       # Inst issue rate
system.cpu.iq.fu_busy_cnt                        3159                       # FU busy when requested
system.cpu.iq.fu_busy_rate                   0.187478                       # FU busy rate (busy events/executed inst)
system.cpu.iq.int_inst_queue_reads              78208                       # Number of integer instruction queue reads
system.cpu.iq.int_inst_queue_writes             27364                       # Number of integer instruction queue writes
system.cpu.iq.int_inst_queue_wakeup_accesses        15407                       # Number of integer instruction queue wakeup accesses
system.cpu.iq.fp_inst_queue_reads                  45                       # Number of floating instruction queue reads
system.cpu.iq.fp_inst_queue_writes                 16                       # Number of floating instruction queue writes
system.cpu.iq.fp_inst_queue_wakeup_accesses           16                       # Number of floating instruction queue wakeup accesses
system.cpu.iq.int_alu_accesses                  19980                       # Number of integer alu accesses
system.cpu.iq.fp_alu_accesses                      29                       # Number of floating point alu accesses
system.cpu.iew.lsq.thread0.forwLoads               16                       # Number of loads that had data forwarded from stores
system.cpu.iew.lsq.thread0.invAddrLoads             0                       # Number of loads ignored due to an invalid address
system.cpu.iew.lsq.thread0.squashedLoads         1791                       # Number of loads squashed
system.cpu.iew.lsq.thread0.ignoredResponses            1                       # Number of memory responses ignored because the instruction is squashed
system.cpu.iew.lsq.thread0.memOrderViolation           15                       # Number of memory ordering violations
system.cpu.iew.lsq.thread0.squashedStores          893                       # Number of stores squashed
system.cpu.iew.lsq.thread0.invAddrSwpfs             0                       # Number of software prefetches ignored due to an invalid address
system.cpu.iew.lsq.thread0.blockedLoads             0                       # Number of blocked loads due to partial load-store forwarding
system.cpu.iew.lsq.thread0.rescheduledLoads           33                       # Number of loads that were rescheduled
system.cpu.iew.lsq.thread0.cacheBlocked            61                       # Number of times an access to memory failed due to the cache being blocked
system.cpu.iew.iewIdleCycles                        0                       # Number of cycles IEW is idle
system.cpu.iew.iewSquashCycles                    759                       # Number of cycles IEW is squashing
system.cpu.iew.iewBlockCycles                    1447                       # Number of cycles IEW is blocking
system.cpu.iew.iewUnblockCycles                   409                       # Number of cycles IEW is unblocking
system.cpu.iew.iewDispatchedInsts               19997                       # Number of instructions dispatched to IQ
system.cpu.iew.iewDispSquashedInsts                 0                       # Number of squashed instructions skipped by dispatch
system.cpu.iew.iewDispLoadInsts                  4010                       # Number of dispatched load instructions
system.cpu.iew.iewDispStoreInsts                 2983                       # Number of dispatched store instructions
system.cpu.iew.iewDispNonSpecInsts                 49                       # Number of dispatched non-speculative instructions
system.cpu.iew.iewIQFullEvents                     19                       # Number of times the IQ has become full, causing a stall
system.cpu.iew.iewLSQFullEvents                   381                       # Number of times the LSQ has become full, causing a stall
system.cpu.iew.memOrderViolationEvents             15                       # Number of memory order violations
system.cpu.iew.predictedTakenIncorrect             73                       # Number of branches that were predicted taken incorrectly
system.cpu.iew.predictedNotTakenIncorrect          693                       # Number of branches that were predicted not taken incorrectly
system.cpu.iew.branchMispredicts                  766                       # Number of branch mispredicts detected at execute
system.cpu.iew.iewExecutedInsts                 15887                       # Number of executed instructions
system.cpu.iew.iewExecLoadInsts                  3015                       # Number of load instructions executed
system.cpu.iew.iewExecSquashedInsts               963                       # Number of squashed instructions skipped in execute
system.cpu.iew.exec_swp                             0                       # number of swp insts executed
system.cpu.iew.exec_nop                             7                       # number of nop insts executed
system.cpu.iew.exec_refs                         5468                       # number of memory reference insts executed
system.cpu.iew.exec_branches                     2727                       # Number of branches executed
system.cpu.iew.exec_stores                       2453                       # Number of stores executed
system.cpu.iew.exec_rate                     0.219449                       # Inst execution rate
system.cpu.iew.wb_sent                          15487                       # cumulative count of insts sent to commit
system.cpu.iew.wb_count                         15423                       # cumulative count of insts written-back
system.cpu.iew.wb_producers                      7735                       # num instructions producing a value
system.cpu.iew.wb_consumers                     12783                       # num instructions consuming a value
system.cpu.iew.wb_penalized                         0                       # number of instrctions required to write to 'other' IQ
system.cpu.iew.wb_rate                       0.213040                       # insts written-back per cycle
system.cpu.iew.wb_fanout                     0.605101                       # average fanout of values written-back
system.cpu.iew.wb_penalized_rate                    0                       # fraction of instructions written-back that wrote to 'other' IQ
system.cpu.commit.commitSquashedInsts            6352                       # The number of squashed insts skipped by commit
system.cpu.commit.commitNonSpecStalls              65                       # The number of times commit has been forced to stall to communicate backwards
system.cpu.commit.branchMispredicts               735                       # The number of times a branch was mispredicted
system.cpu.commit.committed_per_cycle::samples        39794                       # Number of insts commited each cycle
system.cpu.commit.committed_per_cycle::mean     0.317008                       # Number of insts commited each cycle
system.cpu.commit.committed_per_cycle::stdev     1.008320                       # Number of insts commited each cycle
system.cpu.commit.committed_per_cycle::underflows            0      0.00%      0.00% # Number of insts commited each cycle
system.cpu.commit.committed_per_cycle::0        33958     85.33%     85.33% # Number of insts commited each cycle
system.cpu.commit.committed_per_cycle::1         2965      7.45%     92.79% # Number of insts commited each cycle
system.cpu.commit.committed_per_cycle::2         1285      3.23%     96.01% # Number of insts commited each cycle
system.cpu.commit.committed_per_cycle::3          629      1.58%     97.60% # Number of insts commited each cycle
system.cpu.commit.committed_per_cycle::4          447      1.12%     98.72% # Number of insts commited each cycle
system.cpu.commit.committed_per_cycle::5          140      0.35%     99.07% # Number of insts commited each cycle
system.cpu.commit.committed_per_cycle::6           92      0.23%     99.30% # Number of insts commited each cycle
system.cpu.commit.committed_per_cycle::7           71      0.18%     99.48% # Number of insts commited each cycle
system.cpu.commit.committed_per_cycle::8          207      0.52%    100.00% # Number of insts commited each cycle
system.cpu.commit.committed_per_cycle::overflows            0      0.00%    100.00% # Number of insts commited each cycle
system.cpu.commit.committed_per_cycle::min_value            0                       # Number of insts commited each cycle
system.cpu.commit.committed_per_cycle::max_value            8                       # Number of insts commited each cycle
system.cpu.commit.committed_per_cycle::total        39794                       # Number of insts commited each cycle
system.cpu.commit.committedInsts                10782                       # Number of instructions committed
system.cpu.commit.committedOps                  12615                       # Number of ops (including micro ops) committed
system.cpu.commit.swp_count                         0                       # Number of s/w prefetches committed
system.cpu.commit.refs                           4309                       # Number of memory references committed
system.cpu.commit.loads                          2219                       # Number of loads committed
system.cpu.commit.membars                          26                       # Number of memory barriers committed
system.cpu.commit.branches                       2196                       # Number of branches committed
system.cpu.commit.fp_insts                         16                       # Number of committed floating point instructions.
system.cpu.commit.int_insts                     10937                       # Number of committed integer instructions.
system.cpu.commit.function_calls                  202                       # Number of function calls committed.
system.cpu.commit.op_class_0::No_OpClass            0      0.00%      0.00% # Class of committed instruction
system.cpu.commit.op_class_0::IntAlu             8301     65.80%     65.80% # Class of committed instruction
system.cpu.commit.op_class_0::IntMult               5      0.04%     65.84% # Class of committed instruction
system.cpu.commit.op_class_0::IntDiv                0      0.00%     65.84% # Class of committed instruction
system.cpu.commit.op_class_0::FloatAdd              0      0.00%     65.84% # Class of committed instruction
system.cpu.commit.op_class_0::FloatCmp              0      0.00%     65.84% # Class of committed instruction
system.cpu.commit.op_class_0::FloatCvt              0      0.00%     65.84% # Class of committed instruction
system.cpu.commit.op_class_0::FloatMult             0      0.00%     65.84% # Class of committed instruction
system.cpu.commit.op_class_0::FloatDiv              0      0.00%     65.84% # Class of committed instruction
system.cpu.commit.op_class_0::FloatSqrt             0      0.00%     65.84% # Class of committed instruction
system.cpu.commit.op_class_0::SimdAdd               0      0.00%     65.84% # Class of committed instruction
system.cpu.commit.op_class_0::SimdAddAcc            0      0.00%     65.84% # Class of committed instruction
system.cpu.commit.op_class_0::SimdAlu               0      0.00%     65.84% # Class of committed instruction
system.cpu.commit.op_class_0::SimdCmp               0      0.00%     65.84% # Class of committed instruction
system.cpu.commit.op_class_0::SimdCvt               0      0.00%     65.84% # Class of committed instruction
system.cpu.commit.op_class_0::SimdMisc              0      0.00%     65.84% # Class of committed instruction
system.cpu.commit.op_class_0::SimdMult              0      0.00%     65.84% # Class of committed instruction
system.cpu.commit.op_class_0::SimdMultAcc            0      0.00%     65.84% # Class of committed instruction
system.cpu.commit.op_class_0::SimdShift             0      0.00%     65.84% # Class of committed instruction
system.cpu.commit.op_class_0::SimdShiftAcc            0      0.00%     65.84% # Class of committed instruction
system.cpu.commit.op_class_0::SimdSqrt              0      0.00%     65.84% # Class of committed instruction
system.cpu.commit.op_class_0::SimdFloatAdd            0      0.00%     65.84% # Class of committed instruction
system.cpu.commit.op_class_0::SimdFloatAlu            0      0.00%     65.84% # Class of committed instruction
system.cpu.commit.op_class_0::SimdFloatCmp            0      0.00%     65.84% # Class of committed instruction
system.cpu.commit.op_class_0::SimdFloatCvt            0      0.00%     65.84% # Class of committed instruction
system.cpu.commit.op_class_0::SimdFloatDiv            0      0.00%     65.84% # Class of committed instruction
system.cpu.commit.op_class_0::SimdFloatMisc            0      0.00%     65.84% # Class of committed instruction
system.cpu.commit.op_class_0::SimdFloatMult            0      0.00%     65.84% # Class of committed instruction
system.cpu.commit.op_class_0::SimdFloatMultAcc            0      0.00%     65.84% # Class of committed instruction
system.cpu.commit.op_class_0::SimdFloatSqrt            0      0.00%     65.84% # Class of committed instruction
system.cpu.commit.op_class_0::MemRead            2219     17.59%     83.43% # Class of committed instruction
system.cpu.commit.op_class_0::MemWrite           2090     16.57%    100.00% # Class of committed instruction
system.cpu.commit.op_class_0::IprAccess             0      0.00%    100.00% # Class of committed instruction
system.cpu.commit.op_class_0::InstPrefetch            0      0.00%    100.00% # Class of committed instruction
system.cpu.commit.op_class_0::total             12615                       # Class of committed instruction
system.cpu.commit.bw_lim_events                   207                       # number cycles where commit BW limit reached
system.cpu.rob.rob_reads                        58411                       # The number of ROB reads
system.cpu.rob.rob_writes                       39180                       # The number of ROB writes
system.cpu.timesIdled                             483                       # Number of times that the entire CPU went into an idle state and unscheduled itself
system.cpu.idleCycles                           31358                       # Total number of cycles that the CPU has spent unscheduled due to idling
[...]
system.cpu.dcache.blocked::no_mshrs                 1                       # number of cycles access was blocked
system.cpu.dcache.blocked::no_targets              40                       # number of cycles access was blocked
system.cpu.dcache.avg_blocked_cycles::no_mshrs           15                       # average number of cycles each access was blocked
system.cpu.dcache.avg_blocked_cycles::no_targets    67.900000                       # average number of cycles each access was blocked
system.cpu.dcache.fast_writes                       0                       # number of fast writes performed
system.cpu.dcache.cache_copies                      0                       # number of cache copies performed
system.cpu.dcache.writebacks::writebacks          227                       # number of writebacks
system.cpu.dcache.writebacks::total               227                       # number of writebacks
system.cpu.dcache.ReadReq_mshr_hits::cpu.data          269                       # number of ReadReq MSHR hits
system.cpu.dcache.ReadReq_mshr_hits::total          269                       # number of ReadReq MSHR hits
system.cpu.dcache.WriteReq_mshr_hits::cpu.data          407                       # number of WriteReq MSHR hits
system.cpu.dcache.WriteReq_mshr_hits::total          407                       # number of WriteReq MSHR hits
system.cpu.dcache.LoadLockedReq_mshr_hits::cpu.data            6                       # number of LoadLockedReq MSHR hits
system.cpu.dcache.LoadLockedReq_mshr_hits::total            6                       # number of LoadLockedReq MSHR hits
system.cpu.dcache.demand_mshr_hits::cpu.data          676                       # number of demand (read+write) MSHR hits
system.cpu.dcache.demand_mshr_hits::total          676                       # number of demand (read+write) MSHR hits
system.cpu.dcache.overall_mshr_hits::cpu.data          676                       # number of overall MSHR hits
system.cpu.dcache.overall_mshr_hits::total          676                       # number of overall MSHR hits
system.cpu.dcache.ReadReq_mshr_misses::cpu.data          505                       # number of ReadReq MSHR misses
system.cpu.dcache.ReadReq_mshr_misses::total          505                       # number of ReadReq MSHR misses
system.cpu.dcache.WriteReq_mshr_misses::cpu.data          150                       # number of WriteReq MSHR misses
system.cpu.dcache.WriteReq_mshr_misses::total          150                       # number of WriteReq MSHR misses
system.cpu.dcache.demand_mshr_misses::cpu.data          655                       # number of demand (read+write) MSHR misses
system.cpu.dcache.demand_mshr_misses::total          655                       # number of demand (read+write) MSHR misses
system.cpu.dcache.overall_mshr_misses::cpu.data          655                       # number of overall MSHR misses
system.cpu.dcache.overall_mshr_misses::total          655                       # number of overall MSHR misses
system.cpu.dcache.ReadReq_mshr_miss_latency::cpu.data     27129000                       # number of ReadReq MSHR miss cycles
system.cpu.dcache.ReadReq_mshr_miss_latency::total     27129000                       # number of ReadReq MSHR miss cycles
system.cpu.dcache.WriteReq_mshr_miss_latency::cpu.data      6466000                       # number of WriteReq MSHR miss cycles
system.cpu.dcache.WriteReq_mshr_miss_latency::total      6466000                       # number of WriteReq MSHR miss cycles
system.cpu.dcache.demand_mshr_miss_latency::cpu.data     33595000                       # number of demand (read+write) MSHR miss cycles
system.cpu.dcache.demand_mshr_miss_latency::total     33595000                       # number of demand (read+write) MSHR miss cycles
system.cpu.dcache.overall_mshr_miss_latency::cpu.data     33595000                       # number of overall MSHR miss cycles
system.cpu.dcache.overall_mshr_miss_latency::total     33595000                       # number of overall MSHR miss cycles
system.cpu.dcache.ReadReq_mshr_miss_rate::cpu.data     0.180228                       # mshr miss rate for ReadReq accesses
system.cpu.dcache.ReadReq_mshr_miss_rate::total     0.180228                       # mshr miss rate for ReadReq accesses
system.cpu.dcache.WriteReq_mshr_miss_rate::cpu.data     0.074776                       # mshr miss rate for WriteReq accesses
system.cpu.dcache.WriteReq_mshr_miss_rate::total     0.074776                       # mshr miss rate for WriteReq accesses
system.cpu.dcache.demand_mshr_miss_rate::cpu.data     0.136231                       # mshr miss rate for demand accesses
system.cpu.dcache.demand_mshr_miss_rate::total     0.136231                       # mshr miss rate for demand accesses
system.cpu.dcache.overall_mshr_miss_rate::cpu.data     0.136231                       # mshr miss rate for overall accesses
system.cpu.dcache.overall_mshr_miss_rate::total     0.136231                       # mshr miss rate for overall accesses
system.cpu.dcache.ReadReq_avg_mshr_miss_latency::cpu.data 53720.792079                       # average ReadReq mshr miss latency
system.cpu.dcache.ReadReq_avg_mshr_miss_latency::total 53720.792079                       # average ReadReq mshr miss latency
system.cpu.dcache.WriteReq_avg_mshr_miss_latency::cpu.data 43106.666667                       # average WriteReq mshr miss latency
system.cpu.dcache.WriteReq_avg_mshr_miss_latency::total 43106.666667                       # average WriteReq mshr miss latency
system.cpu.dcache.demand_avg_mshr_miss_latency::cpu.data 51290.076336                       # average overall mshr miss latency
system.cpu.dcache.demand_avg_mshr_miss_latency::total 51290.076336                       # average overall mshr miss latency
system.cpu.dcache.overall_avg_mshr_miss_latency::cpu.data 51290.076336                       # average overall mshr miss latency
system.cpu.dcache.overall_avg_mshr_miss_latency::total 51290.076336                       # average overall mshr miss latency
system.cpu.dcache.no_allocate_misses                0                       # Number of misses that were no-allocate
system.cpu.icache.tags.replacements               144                       # number of replacements
system.cpu.icache.tags.tagsinuse           225.453012                       # Cycle average of tags in use
system.cpu.icache.tags.total_refs                8323                       # Total number of references to valid blocks.
system.cpu.icache.tags.sampled_refs               538                       # Sample count of references to valid blocks.
system.cpu.icache.tags.avg_refs             15.470260                       # Average number of references to valid blocks.
system.cpu.icache.tags.warmup_cycle                 0                       # Cycle when the warmup percentage was hit.
system.cpu.icache.tags.occ_blocks::cpu.inst   225.453012                       # Average occupied blocks per requestor
system.cpu.icache.tags.occ_percent::cpu.inst     0.440338                       # Average percentage of cache occupancy
system.cpu.icache.tags.occ_percent::total     0.440338                       # Average percentage of cache occupancy
system.cpu.icache.tags.occ_task_id_blocks::1024          394                       # Occupied blocks per task id
system.cpu.icache.tags.age_task_id_blocks_1024::0          146                       # Occupied blocks per task id
system.cpu.icache.tags.age_task_id_blocks_1024::1          248                       # Occupied blocks per task id
system.cpu.icache.tags.occ_task_id_percent::1024     0.769531                       # Percentage of cache occupancy per task id
system.cpu.icache.tags.tag_accesses             18490                       # Number of tag accesses
system.cpu.icache.tags.data_accesses            18490                       # Number of data accesses
system.cpu.icache.ReadReq_hits::cpu.inst         8323                       # number of ReadReq hits
system.cpu.icache.ReadReq_hits::total            8323                       # number of ReadReq hits
system.cpu.icache.demand_hits::cpu.inst          8323                       # number of demand (read+write) hits
system.cpu.icache.demand_hits::total             8323                       # number of demand (read+write) hits
system.cpu.icache.overall_hits::cpu.inst         8323                       # number of overall hits
system.cpu.icache.overall_hits::total            8323                       # number of overall hits
system.cpu.icache.ReadReq_misses::cpu.inst          653                       # number of ReadReq misses
system.cpu.icache.ReadReq_misses::total           653                       # number of ReadReq misses
system.cpu.icache.demand_misses::cpu.inst          653                       # number of demand (read+write) misses
system.cpu.icache.demand_misses::total            653                       # number of demand (read+write) misses
system.cpu.icache.overall_misses::cpu.inst          653                       # number of overall misses
system.cpu.icache.overall_misses::total           653                       # number of overall misses
system.cpu.icache.ReadReq_miss_latency::cpu.inst     35220740                       # number of ReadReq miss cycles
system.cpu.icache.ReadReq_miss_latency::total     35220740                       # number of ReadReq miss cycles
system.cpu.icache.demand_miss_latency::cpu.inst     35220740                       # number of demand (read+write) miss cycles
system.cpu.icache.demand_miss_latency::total     35220740                       # number of demand (read+write) miss cycles
system.cpu.icache.overall_miss_latency::cpu.inst     35220740                       # number of overall miss cycles
system.cpu.icache.overall_miss_latency::total     35220740                       # number of overall miss cycles
system.cpu.icache.ReadReq_accesses::cpu.inst         8976                       # number of ReadReq accesses(hits+misses)
system.cpu.icache.ReadReq_accesses::total         8976                       # number of ReadReq accesses(hits+misses)
system.cpu.icache.demand_accesses::cpu.inst         8976                       # number of demand (read+write) accesses
system.cpu.icache.demand_accesses::total         8976                       # number of demand (read+write) accesses
system.cpu.icache.overall_accesses::cpu.inst         8976                       # number of overall (read+write) accesses
system.cpu.icache.overall_accesses::total         8976                       # number of overall (read+write) accesses
system.cpu.icache.ReadReq_miss_rate::cpu.inst     0.072750                       # miss rate for ReadReq accesses
system.cpu.icache.ReadReq_miss_rate::total     0.072750                       # miss rate for ReadReq accesses
system.cpu.icache.demand_miss_rate::cpu.inst     0.072750                       # miss rate for demand accesses
system.cpu.icache.demand_miss_rate::total     0.072750                       # miss rate for demand accesses
system.cpu.icache.overall_miss_rate::cpu.inst     0.072750                       # miss rate for overall accesses
system.cpu.icache.overall_miss_rate::total     0.072750                       # miss rate for overall accesses
system.cpu.icache.ReadReq_avg_miss_latency::cpu.inst 53936.814701                       # average ReadReq miss latency
system.cpu.icache.ReadReq_avg_miss_latency::total 53936.814701                       # average ReadReq miss latency
system.cpu.icache.demand_avg_miss_latency::cpu.inst 53936.814701                       # average overall miss latency
system.cpu.icache.demand_avg_miss_latency::total 53936.814701                       # average overall miss latency
system.cpu.icache.overall_avg_miss_latency::cpu.inst 53936.814701                       # average overall miss latency
system.cpu.icache.overall_avg_miss_latency::total 53936.814701                       # average overall miss latency
system.cpu.icache.blocked_cycles::no_mshrs        11710                       # number of cycles access was blocked
system.cpu.icache.blocked_cycles::no_targets            2                       # number of cycles access was blocked
system.cpu.icache.blocked::no_mshrs               164                       # number of cycles access was blocked
system.cpu.icache.blocked::no_targets               1                       # number of cycles access was blocked
system.cpu.icache.avg_blocked_cycles::no_mshrs    71.402439                       # average number of cycles each access was blocked
system.cpu.icache.avg_blocked_cycles::no_targets            2                       # average number of cycles each access was blocked
system.cpu.icache.fast_writes                       0                       # number of fast writes performed
system.cpu.icache.cache_copies                      0                       # number of cache copies performed
system.cpu.icache.ReadReq_mshr_hits::cpu.inst          114                       # number of ReadReq MSHR hits
system.cpu.icache.ReadReq_mshr_hits::total          114                       # number of ReadReq MSHR hits
system.cpu.icache.demand_mshr_hits::cpu.inst          114                       # number of demand (read+write) MSHR hits
system.cpu.icache.demand_mshr_hits::total          114                       # number of demand (read+write) MSHR hits
system.cpu.icache.overall_mshr_hits::cpu.inst          114                       # number of overall MSHR hits
system.cpu.icache.overall_mshr_hits::total          114                       # number of overall MSHR hits
system.cpu.icache.ReadReq_mshr_misses::cpu.inst          539                       # number of ReadReq MSHR misses
system.cpu.icache.ReadReq_mshr_misses::total          539                       # number of ReadReq MSHR misses
system.cpu.icache.demand_mshr_misses::cpu.inst          539                       # number of demand (read+write) MSHR misses
system.cpu.icache.demand_mshr_misses::total          539                       # number of demand (read+write) MSHR misses
system.cpu.icache.overall_mshr_misses::cpu.inst          539                       # number of overall MSHR misses
system.cpu.icache.overall_mshr_misses::total          539                       # number of overall MSHR misses
system.cpu.icache.ReadReq_mshr_miss_latency::cpu.inst     30160492                       # number of ReadReq MSHR miss cycles
system.cpu.icache.ReadReq_mshr_miss_latency::total     30160492                       # number of ReadReq MSHR miss cycles
system.cpu.icache.demand_mshr_miss_latency::cpu.inst     30160492                       # number of demand (read+write) MSHR miss cycles
system.cpu.icache.demand_mshr_miss_latency::total     30160492                       # number of demand (read+write) MSHR miss cycles
system.cpu.icache.overall_mshr_miss_latency::cpu.inst     30160492                       # number of overall MSHR miss cycles
system.cpu.icache.overall_mshr_miss_latency::total     30160492                       # number of overall MSHR miss cycles
system.cpu.icache.ReadReq_mshr_miss_rate::cpu.inst     0.060049                       # mshr miss rate for ReadReq accesses
system.cpu.icache.ReadReq_mshr_miss_rate::total     0.060049                       # mshr miss rate for ReadReq accesses
system.cpu.icache.demand_mshr_miss_rate::cpu.inst     0.060049                       # mshr miss rate for demand accesses
system.cpu.icache.demand_mshr_miss_rate::total     0.060049                       # mshr miss rate for demand accesses
system.cpu.icache.overall_mshr_miss_rate::cpu.inst     0.060049                       # mshr miss rate for overall accesses
system.cpu.icache.overall_mshr_miss_rate::total     0.060049                       # mshr miss rate for overall accesses
system.cpu.icache.ReadReq_avg_mshr_miss_latency::cpu.inst 55956.385900                       # average ReadReq mshr miss latency
system.cpu.icache.ReadReq_avg_mshr_miss_latency::total 55956.385900                       # average ReadReq mshr miss latency
system.cpu.icache.demand_avg_mshr_miss_latency::cpu.inst 55956.385900                       # average overall mshr miss latency
system.cpu.icache.demand_avg_mshr_miss_latency::total 55956.385900                       # average overall mshr miss latency
system.cpu.icache.overall_avg_mshr_miss_latency::cpu.inst 55956.385900                       # average overall mshr miss latency
system.cpu.icache.overall_avg_mshr_miss_latency::total 55956.385900                       # average overall mshr miss latency
system.cpu.icache.no_allocate_misses                0                       # Number of misses that were no-allocate
system.membus.trans_dist::ReadReq                1044                       # Transaction distribution
system.membus.trans_dist::ReadResp               1042                       # Transaction distribution
system.membus.trans_dist::Writeback               227                       # Transaction distribution
system.membus.trans_dist::ReadExReq               150                       # Transaction distribution
system.membus.trans_dist::ReadExResp              150                       # Transaction distribution
system.membus.pkt_count_system.cpu.icache.mem_side::system.mem_ctrls.port         1077                       # Packet count per connected master and slave (bytes)
system.membus.pkt_count_system.cpu.dcache.mem_side::system.mem_ctrls.port         1536                       # Packet count per connected master and slave (bytes)
system.membus.pkt_count::total                   2613                       # Packet count per connected master and slave (bytes)
system.membus.pkt_size_system.cpu.icache.mem_side::system.mem_ctrls.port        34432                       # Cumulative packet size per connected master and slave (bytes)
system.membus.pkt_size_system.cpu.dcache.mem_side::system.mem_ctrls.port        56384                       # Cumulative packet size per connected master and slave (bytes)
system.membus.pkt_size::total                   90816                       # Cumulative packet size per connected master and slave (bytes)
system.membus.snoops                                0                       # Total snoops (count)
system.membus.snoop_fanout::samples              1421                       # Request fanout histogram
system.membus.snoop_fanout::mean                    1                       # Request fanout histogram
system.membus.snoop_fanout::stdev                   0                       # Request fanout histogram
system.membus.snoop_fanout::underflows              0      0.00%      0.00% # Request fanout histogram
system.membus.snoop_fanout::0                       0      0.00%      0.00% # Request fanout histogram
system.membus.snoop_fanout::1                    1421    100.00%    100.00% # Request fanout histogram
system.membus.snoop_fanout::2                       0      0.00%    100.00% # Request fanout histogram
system.membus.snoop_fanout::overflows               0      0.00%    100.00% # Request fanout histogram
system.membus.snoop_fanout::min_value               1                       # Request fanout histogram
system.membus.snoop_fanout::max_value               1                       # Request fanout histogram
system.membus.snoop_fanout::total                1421                       # Request fanout histogram
system.membus.reqLayer0.occupancy             2618000                       # Layer occupancy (ticks)
system.membus.reqLayer0.utilization               7.2                       # Layer utilization (%)
system.membus.respLayer1.occupancy            2860750                       # Layer occupancy (ticks)
system.membus.respLayer1.utilization              7.9                       # Layer utilization (%)
system.membus.respLayer2.occupancy            3439000                       # Layer occupancy (ticks)
system.membus.respLayer2.utilization              9.5                       # Layer utilization (%)

---------- End Simulation Statistics   ----------
