
---------- Begin Simulation Statistics ----------
sim_seconds                                  0.000037                       # Number of seconds simulated
sim_ticks                                    37058000                       # Number of ticks simulated
final_tick                                   37058000                       # Number of ticks from beginning of simulation (restored from checkpoints and never reset)
sim_freq                                 1000000000000                       # Frequency of simulated ticks
host_inst_rate                                  73859                       # Simulator instruction rate (inst/s)
host_op_rate                                    86408                       # Simulator op (including micro ops) rate (op/s)
host_tick_rate                              253814496                       # Simulator tick rate (ticks/s)
host_mem_usage                                 642688                       # Number of bytes of host memory used
host_seconds                                     0.15                       # Real time elapsed on the host
sim_insts                                       10782                       # Number of instructions simulated
sim_ops                                         12615                       # Number of ops (including micro ops) simulated
system.voltage_domain.voltage                       1                       # Voltage in Volts
system.clk_domain.clock                          1000                       # Clock period in ticks
system.mem_ctrls.bytes_read::cpu.inst           34496                       # Number of bytes read from this memory
system.mem_ctrls.bytes_read::cpu.data           47936                       # Number of bytes read from this memory
system.mem_ctrls.bytes_read::total              82432                       # Number of bytes read from this memory
system.mem_ctrls.bytes_inst_read::cpu.inst        34496                       # Number of instructions bytes read from this memory
system.mem_ctrls.bytes_inst_read::total         34496                       # Number of instructions bytes read from this memory
system.mem_ctrls.bytes_written::writebacks        16512                       # Number of bytes written to this memory
system.mem_ctrls.bytes_written::total           16512                       # Number of bytes written to this memory
system.mem_ctrls.num_reads::cpu.inst              539                       # Number of read requests responded to by this memory
system.mem_ctrls.num_reads::cpu.data              749                       # Number of read requests responded to by this memory
system.mem_ctrls.num_reads::total                1288                       # Number of read requests responded to by this memory
system.mem_ctrls.num_writes::writebacks           258                       # Number of write requests responded to by this memory
system.mem_ctrls.num_writes::total                258                       # Number of write requests responded to by this memory
system.mem_ctrls.bw_read::cpu.inst          930865130                       # Total read bandwidth from this memory (bytes/s)
system.mem_ctrls.bw_read::cpu.data         1293539856                       # Total read bandwidth from this memory (bytes/s)
system.mem_ctrls.bw_read::total            2224404987                       # Total read bandwidth from this memory (bytes/s)
system.mem_ctrls.bw_inst_read::cpu.inst     930865130                       # Instruction read bandwidth from this memory (bytes/s)
system.mem_ctrls.bw_inst_read::total        930865130                       # Instruction read bandwidth from this memory (bytes/s)
system.mem_ctrls.bw_write::writebacks       445571806                       # Write bandwidth from this memory (bytes/s)
system.mem_ctrls.bw_write::total            445571806                       # Write bandwidth from this memory (bytes/s)
system.mem_ctrls.bw_total::writebacks       445571806                       # Total bandwidth to/from this memory (bytes/s)
system.mem_ctrls.bw_total::cpu.inst         930865130                       # Total bandwidth to/from this memory (bytes/s)
system.mem_ctrls.bw_total::cpu.data        1293539856                       # Total bandwidth to/from this memory (bytes/s)
system.mem_ctrls.bw_total::total           2669976793                       # Total bandwidth to/from this memory (bytes/s)
system.mem_ctrls.readReqs                        1290                       # Number of read requests accepted
system.mem_ctrls.writeReqs                        258                       # Number of write requests accepted
system.mem_ctrls.readBursts                      1290                       # Number of DRAM read bursts, including those serviced by the write queue
system.mem_ctrls.writeBursts                      258                       # Number of DRAM write bursts, including those merged in the write queue
system.mem_ctrls.bytesReadDRAM                  67072                       # Total number of bytes read from DRAM
system.mem_ctrls.bytesReadWrQ                   15488                       # Total number of bytes read from write queue
system.mem_ctrls.bytesWritten                    7168                       # Total number of bytes written to DRAM
system.mem_ctrls.bytesReadSys                   82560                       # Total read bytes from the system interface side
system.mem_ctrls.bytesWrittenSys                16512                       # Total written bytes from the system interface side
system.mem_ctrls.servicedByWrQ                    242                       # Number of DRAM read bursts serviced by the write queue
system.mem_ctrls.mergedWrBursts                   124                       # Number of DRAM write bursts merged with an existing one
system.mem_ctrls.neitherReadNorWriteReqs            0                       # Number of requests that are neither read nor write
system.mem_ctrls.perBankRdBursts::0                92                       # Per bank write bursts
system.mem_ctrls.perBankRdBursts::1                 4                       # Per bank write bursts
system.mem_ctrls.perBankRdBursts::2                33                       # Per bank write bursts
system.mem_ctrls.perBankRdBursts::3                92                       # Per bank write bursts
system.mem_ctrls.perBankRdBursts::4               163                       # Per bank write bursts
system.mem_ctrls.perBankRdBursts::5                88                       # Per bank write bursts
system.mem_ctrls.perBankRdBursts::6               140                       # Per bank write bursts
system.mem_ctrls.perBankRdBursts::7                69                       # Per bank write bursts
system.mem_ctrls.perBankRdBursts::8                39                       # Per bank write bursts
system.mem_ctrls.perBankRdBursts::9               117                       # Per bank write bursts
system.mem_ctrls.perBankRdBursts::10               33                       # Per bank write bursts
system.mem_ctrls.perBankRdBursts::11               23                       # Per bank write bursts
system.mem_ctrls.perBankRdBursts::12               37                       # Per bank write bursts
system.mem_ctrls.perBankRdBursts::13               32                       # Per bank write bursts
system.mem_ctrls.perBankRdBursts::14               76                       # Per bank write bursts
system.mem_ctrls.perBankRdBursts::15               10                       # Per bank write bursts
system.mem_ctrls.perBankWrBursts::0                 0                       # Per bank write bursts
system.mem_ctrls.perBankWrBursts::1                 0                       # Per bank write bursts
system.mem_ctrls.perBankWrBursts::2                 0                       # Per bank write bursts
system.mem_ctrls.perBankWrBursts::3                 4                       # Per bank write bursts
system.mem_ctrls.perBankWrBursts::4                56                       # Per bank write bursts
system.mem_ctrls.perBankWrBursts::5                26                       # Per bank write bursts
system.mem_ctrls.perBankWrBursts::6                21                       # Per bank write bursts
system.mem_ctrls.perBankWrBursts::7                 5                       # Per bank write bursts
system.mem_ctrls.perBankWrBursts::8                 0                       # Per bank write bursts
system.mem_ctrls.perBankWrBursts::9                 0                       # Per bank write bursts
system.mem_ctrls.perBankWrBursts::10                0                       # Per bank write bursts
system.mem_ctrls.perBankWrBursts::11                0                       # Per bank write bursts
system.mem_ctrls.perBankWrBursts::12                0                       # Per bank write bursts
system.mem_ctrls.perBankWrBursts::13                0                       # Per bank write bursts
system.mem_ctrls.perBankWrBursts::14                0                       # Per bank write bursts
system.mem_ctrls.perBankWrBursts::15                0                       # Per bank write bursts
system.mem_ctrls.numRdRetry                         0                       # Number of times read queue was full causing retry
system.mem_ctrls.numWrRetry                         0                       # Number of times write queue was full causing retry
system.mem_ctrls.totGap                      37031500                       # Total gap between requests
system.mem_ctrls.readPktSize::0                     0                       # Read request sizes (log2)
system.mem_ctrls.readPktSize::1                     0                       # Read request sizes (log2)
system.mem_ctrls.readPktSize::2                     0                       # Read request sizes (log2)
system.mem_ctrls.readPktSize::3                     0                       # Read request sizes (log2)
system.mem_ctrls.readPktSize::4                     0                       # Read request sizes (log2)
system.mem_ctrls.readPktSize::5                     0                       # Read request sizes (log2)
system.mem_ctrls.readPktSize::6                  1290                       # Read request sizes (log2)
system.mem_ctrls.writePktSize::0                    0                       # Write request sizes (log2)
system.mem_ctrls.writePktSize::1                    0                       # Write request sizes (log2)
system.mem_ctrls.writePktSize::2                    0                       # Write request sizes (log2)
system.mem_ctrls.writePktSize::3                    0                       # Write request sizes (log2)
system.mem_ctrls.writePktSize::4                    0                       # Write request sizes (log2)
system.mem_ctrls.writePktSize::5                    0                       # Write request sizes (log2)
system.mem_ctrls.writePktSize::6                  258                       # Write request sizes (log2)
system.mem_ctrls.rdQLenPdf::0                     535                       # What read queue length does an incoming req see
system.mem_ctrls.rdQLenPdf::1                     341                       # What read queue length does an incoming req see
system.mem_ctrls.rdQLenPdf::2                     129                       # What read queue length does an incoming req see
system.mem_ctrls.rdQLenPdf::3                      32                       # What read queue length does an incoming req see
system.mem_ctrls.rdQLenPdf::4                       8                       # What read queue length does an incoming req see
system.mem_ctrls.rdQLenPdf::5                       3                       # What read queue length does an incoming req see
system.mem_ctrls.rdQLenPdf::6                       0                       # What read queue length does an incoming req see
system.mem_ctrls.rdQLenPdf::7                       0                       # What read queue length does an incoming req see
system.mem_ctrls.rdQLenPdf::8                       0                       # What read queue length does an incoming req see
system.mem_ctrls.rdQLenPdf::9                       0                       # What read queue length does an incoming req see
system.mem_ctrls.rdQLenPdf::10                      0                       # What read queue length does an incoming req see
system.mem_ctrls.rdQLenPdf::11                      0                       # What read queue length does an incoming req see
system.mem_ctrls.rdQLenPdf::12                      0                       # What read queue length does an incoming req see
system.mem_ctrls.rdQLenPdf::13                      0                       # What read queue length does an incoming req see
system.mem_ctrls.rdQLenPdf::14                      0                       # What read queue length does an incoming req see
system.mem_ctrls.rdQLenPdf::15                      0                       # What read queue length does an incoming req see
system.mem_ctrls.rdQLenPdf::16                      0                       # What read queue length does an incoming req see
system.mem_ctrls.rdQLenPdf::17                      0                       # What read queue length does an incoming req see
system.mem_ctrls.rdQLenPdf::18                      0                       # What read queue length does an incoming req see
system.mem_ctrls.rdQLenPdf::19                      0                       # What read queue length does an incoming req see
system.mem_ctrls.rdQLenPdf::20                      0                       # What read queue length does an incoming req see
system.mem_ctrls.rdQLenPdf::21                      0                       # What read queue length does an incoming req see
system.mem_ctrls.rdQLenPdf::22                      0                       # What read queue length does an incoming req see
system.mem_ctrls.rdQLenPdf::23                      0                       # What read queue length does an incoming req see
system.mem_ctrls.rdQLenPdf::24                      0                       # What read queue length does an incoming req see
system.mem_ctrls.rdQLenPdf::25                      0                       # What read queue length does an incoming req see
system.mem_ctrls.rdQLenPdf::26                      0                       # What read queue length does an incoming req see
system.mem_ctrls.rdQLenPdf::27                      0                       # What read queue length does an incoming req see
system.mem_ctrls.rdQLenPdf::28                      0                       # What read queue length does an incoming req see
system.mem_ctrls.rdQLenPdf::29                      0                       # What read queue length does an incoming req see
system.mem_ctrls.rdQLenPdf::30                      0                       # What read queue length does an incoming req see
system.mem_ctrls.rdQLenPdf::31                      0                       # What read queue length does an incoming req see
system.mem_ctrls.wrQLenPdf::0                       1                       # What write queue length does an incoming req see
system.mem_ctrls.wrQLenPdf::1                       1                       # What write queue length does an incoming req see
system.mem_ctrls.wrQLenPdf::2                       1                       # What write queue length does an incoming req see
system.mem_ctrls.wrQLenPdf::3                       1                       # What write queue length does an incoming req see
system.mem_ctrls.wrQLenPdf::4                       1                       # What write queue length does an incoming req see
system.mem_ctrls.wrQLenPdf::5                       1                       # What write queue length does an incoming req see
system.mem_ctrls.wrQLenPdf::6                       1                       # What write queue length does an incoming req see
system.mem_ctrls.wrQLenPdf::7                       1                       # What write queue length does an incoming req see
system.mem_ctrls.wrQLenPdf::8                       1                       # What write queue length does an incoming req see
system.mem_ctrls.wrQLenPdf::9                       1                       # What write queue length does an incoming req see
system.mem_ctrls.wrQLenPdf::10                      1                       # What write queue length does an incoming req see
system.mem_ctrls.wrQLenPdf::11                      1                       # What write queue length does an incoming req see
system.mem_ctrls.wrQLenPdf::12                      1                       # What write queue length does an incoming req see
system.mem_ctrls.wrQLenPdf::13                      1                       # What write queue length does an incoming req see
system.mem_ctrls.wrQLenPdf::14                      1                       # What write queue length does an incoming req see
system.mem_ctrls.wrQLenPdf::15                      1                       # What write queue length does an incoming req see
system.mem_ctrls.wrQLenPdf::16                      1                       # What write queue length does an incoming req see
system.mem_ctrls.wrQLenPdf::17                      6                       # What write queue length does an incoming req see
system.mem_ctrls.wrQLenPdf::18                      8                       # What write queue length does an incoming req see
system.mem_ctrls.wrQLenPdf::19                      8                       # What write queue length does an incoming req see
system.mem_ctrls.wrQLenPdf::20                      8                       # What write queue length does an incoming req see
system.mem_ctrls.wrQLenPdf::21                     10                       # What write queue length does an incoming req see
system.mem_ctrls.wrQLenPdf::22                      7                       # What write queue length does an incoming req see
system.mem_ctrls.wrQLenPdf::23                      7                       # What write queue length does an incoming req see
system.mem_ctrls.wrQLenPdf::24                      7                       # What write queue length does an incoming req see
system.mem_ctrls.wrQLenPdf::25                      7                       # What write queue length does an incoming req see
system.mem_ctrls.wrQLenPdf::26                      7                       # What write queue length does an incoming req see
system.mem_ctrls.wrQLenPdf::27                      7                       # What write queue length does an incoming req see
system.mem_ctrls.wrQLenPdf::28                      7                       # What write queue length does an incoming req see
system.mem_ctrls.wrQLenPdf::29                      7                       # What write queue length does an incoming req see
system.mem_ctrls.wrQLenPdf::30                      7                       # What write queue length does an incoming req see
system.mem_ctrls.wrQLenPdf::31                      7                       # What write queue length does an incoming req see
system.mem_ctrls.wrQLenPdf::32                      7                       # What write queue length does an incoming req see
system.mem_ctrls.wrQLenPdf::33                      0                       # What write queue length does an incoming req see
system.mem_ctrls.wrQLenPdf::34                      0                       # What write queue length does an incoming req see
system.mem_ctrls.wrQLenPdf::35                      0                       # What write queue length does an incoming req see
system.mem_ctrls.wrQLenPdf::36                      0                       # What write queue length does an incoming req see
system.mem_ctrls.wrQLenPdf::37                      0                       # What write queue length does an incoming req see
system.mem_ctrls.wrQLenPdf::38                      0                       # What write queue length does an incoming req see
system.mem_ctrls.wrQLenPdf::39                      0                       # What write queue length does an incoming req see
system.mem_ctrls.wrQLenPdf::40                      0                       # What write queue length does an incoming req see
system.mem_ctrls.wrQLenPdf::41                      0                       # What write queue length does an incoming req see
system.mem_ctrls.wrQLenPdf::42                      0                       # What write queue length does an incoming req see
system.mem_ctrls.wrQLenPdf::43                      0                       # What write queue length does an incoming req see
system.mem_ctrls.wrQLenPdf::44                      0                       # What write queue length does an incoming req see
system.mem_ctrls.wrQLenPdf::45                      0                       # What write queue length does an incoming req see
system.mem_ctrls.wrQLenPdf::46                      0                       # What write queue length does an incoming req see
system.mem_ctrls.wrQLenPdf::47                      0                       # What write queue length does an incoming req see
system.mem_ctrls.wrQLenPdf::48                      0                       # What write queue length does an incoming req see
system.mem_ctrls.wrQLenPdf::49                      0                       # What write queue length does an incoming req see
system.mem_ctrls.wrQLenPdf::50                      0                       # What write queue length does an incoming req see
system.mem_ctrls.wrQLenPdf::51                      0                       # What write queue length does an incoming req see
system.mem_ctrls.wrQLenPdf::52                      0                       # What write queue length does an incoming req see
system.mem_ctrls.wrQLenPdf::53                      0                       # What write queue length does an incoming req see
system.mem_ctrls.wrQLenPdf::54                      0                       # What write queue length does an incoming req see
system.mem_ctrls.wrQLenPdf::55                      0                       # What write queue length does an incoming req see
system.mem_ctrls.wrQLenPdf::56                      0                       # What write queue length does an incoming req see
system.mem_ctrls.wrQLenPdf::57                      0                       # What write queue length does an incoming req see
system.mem_ctrls.wrQLenPdf::58                      0                       # What write queue length does an incoming req see
system.mem_ctrls.wrQLenPdf::59                      0                       # What write queue length does an incoming req see
system.mem_ctrls.wrQLenPdf::60                      0                       # What write queue length does an incoming req see
system.mem_ctrls.wrQLenPdf::61                      0                       # What write queue length does an incoming req see
system.mem_ctrls.wrQLenPdf::62                      0                       # What write queue length does an incoming req see
system.mem_ctrls.wrQLenPdf::63                      0                       # What write queue length does an incoming req see
system.mem_ctrls.bytesPerActivate::samples          195                       # Bytes accessed per row activation
system.mem_ctrls.bytesPerActivate::mean    368.574359                       # Bytes accessed per row activation
system.mem_ctrls.bytesPerActivate::gmean   226.803944                       # Bytes accessed per row activation
system.mem_ctrls.bytesPerActivate::stdev   348.296826                       # Bytes accessed per row activation
system.mem_ctrls.bytesPerActivate::0-127           54     27.69%     27.69% # Bytes accessed per row activation
system.mem_ctrls.bytesPerActivate::128-255           49     25.13%     52.82% # Bytes accessed per row activation
system.mem_ctrls.bytesPerActivate::256-383           22     11.28%     64.10% # Bytes accessed per row activation
system.mem_ctrls.bytesPerActivate::384-511           15      7.69%     71.79% # Bytes accessed per row activation
system.mem_ctrls.bytesPerActivate::512-639           10      5.13%     76.92% # Bytes accessed per row activation
system.mem_ctrls.bytesPerActivate::640-767            6      3.08%     80.00% # Bytes accessed per row activation
system.mem_ctrls.bytesPerActivate::768-895            4      2.05%     82.05% # Bytes accessed per row activation
system.mem_ctrls.bytesPerActivate::896-1023            5      2.56%     84.62% # Bytes accessed per row activation
system.mem_ctrls.bytesPerActivate::1024-1151           30     15.38%    100.00% # Bytes accessed per row activation
system.mem_ctrls.bytesPerActivate::total          195                       # Bytes accessed per row activation
system.mem_ctrls.rdPerTurnAround::samples            7                       # Reads before turning the bus around for writes
system.mem_ctrls.rdPerTurnAround::mean     142.428571                       # Reads before turning the bus around for writes
system.mem_ctrls.rdPerTurnAround::gmean    136.686185                       # Reads before turning the bus around for writes
system.mem_ctrls.rdPerTurnAround::stdev     43.092370                       # Reads before turning the bus around for writes
system.mem_ctrls.rdPerTurnAround::80-87             1     14.29%     14.29% # Reads before turning the bus around for writes
system.mem_ctrls.rdPerTurnAround::104-111            1     14.29%     28.57% # Reads before turning the bus around for writes
system.mem_ctrls.rdPerTurnAround::120-127            1     14.29%     42.86% # Reads before turning the bus around for writes
system.mem_ctrls.rdPerTurnAround::128-135            1     14.29%     57.14% # Reads before turning the bus around for writes
system.mem_ctrls.rdPerTurnAround::152-159            1     14.29%     71.43% # Reads before turning the bus around for writes
system.mem_ctrls.rdPerTurnAround::184-191            1     14.29%     85.71% # Reads before turning the bus around for writes
system.mem_ctrls.rdPerTurnAround::200-207            1     14.29%    100.00% # Reads before turning the bus around for writes
system.mem_ctrls.rdPerTurnAround::total             7                       # Reads before turning the bus around for writes
system.mem_ctrls.wrPerTurnAround::samples            7                       # Writes before turning the bus around for reads
system.mem_ctrls.wrPerTurnAround::mean             16                       # Writes before turning the bus around for reads
system.mem_ctrls.wrPerTurnAround::gmean     16.000000                       # Writes before turning the bus around for reads
system.mem_ctrls.wrPerTurnAround::16                7    100.00%    100.00% # Writes before turning the bus around for reads
system.mem_ctrls.wrPerTurnAround::total             7                       # Writes before turning the bus around for reads
system.mem_ctrls.totQLat                     10424750                       # Total ticks spent queuing
system.mem_ctrls.totMemAccLat                30074750                       # Total ticks spent from burst creation until serviced by the DRAM
system.mem_ctrls.totBusLat                    5240000                       # Total ticks spent in databus transfers
system.mem_ctrls.avgQLat                      9947.28                       # Average queueing delay per DRAM burst
system.mem_ctrls.avgBusLat                    5000.00                       # Average bus latency per DRAM burst
system.mem_ctrls.avgMemAccLat                28697.28                       # Average memory access latency per DRAM burst
system.mem_ctrls.avgRdBW                      1809.92                       # Average DRAM read bandwidth in MiByte/s
system.mem_ctrls.avgWrBW                       193.43                       # Average achieved write bandwidth in MiByte/s
system.mem_ctrls.avgRdBWSys                   2227.86                       # Average system read bandwidth in MiByte/s
system.mem_ctrls.avgWrBWSys                    445.57                       # Average system write bandwidth in MiByte/s
system.mem_ctrls.peakBW                      12800.00                       # Theoretical peak bandwidth in MiByte/s
system.mem_ctrls.busUtil                        15.65                       # Data bus utilization in percentage
system.mem_ctrls.busUtilRead                    14.14                       # Data bus utilization in percentage for reads
system.mem_ctrls.busUtilWrite                    1.51                       # Data bus utilization in percentage for writes
system.mem_ctrls.avgRdQLen                       1.85                       # Average read queue length when enqueuing
system.mem_ctrls.avgWrQLen                      23.08                       # Average write queue length when enqueuing
system.mem_ctrls.readRowHits                      845                       # Number of row buffer hits during reads
system.mem_ctrls.writeRowHits                     109                       # Number of row buffer hits during writes
system.mem_ctrls.readRowHitRate                 80.63                       # Row buffer hit rate for reads
system.mem_ctrls.writeRowHitRate                81.34                       # Row buffer hit rate for writes
system.mem_ctrls.avgGap                      23922.16                       # Average gap between requests
system.mem_ctrls.pageHitRate                    80.71                       # Row buffer hit rate, read and write combined
system.mem_ctrls_0.actEnergy                   846720                       # Energy for activate commands per rank (pJ)
system.mem_ctrls_0.preEnergy                   462000                       # Energy for precharge commands per rank (pJ)
system.mem_ctrls_0.readEnergy                 4227600                       # Energy for read commands per rank (pJ)
system.mem_ctrls_0.writeEnergy                 622080                       # Energy for write commands per rank (pJ)
system.mem_ctrls_0.refreshEnergy              2034240                       # Energy for refresh commands per rank (pJ)
system.mem_ctrls_0.actBackEnergy             21345075                       # Energy for active background per rank (pJ)
system.mem_ctrls_0.preBackEnergy               119250                       # Energy for precharge background per rank (pJ)
system.mem_ctrls_0.totalEnergy               29656965                       # Total energy per rank (pJ)
system.mem_ctrls_0.averagePower            944.338959                       # Core power per rank (mW)
system.mem_ctrls_0.memoryStateTime::IDLE       100750                       # Time in different power states
system.mem_ctrls_0.memoryStateTime::REF       1040000                       # Time in different power states
system.mem_ctrls_0.memoryStateTime::PRE_PDN            0                       # Time in different power states
system.mem_ctrls_0.memoryStateTime::ACT      30278000                       # Time in different power states
system.mem_ctrls_0.memoryStateTime::ACT_PDN            0                       # Time in different power states
system.mem_ctrls_1.actEnergy                   446040                       # Energy for activate commands per rank (pJ)
system.mem_ctrls_1.preEnergy                   243375                       # Energy for precharge commands per rank (pJ)
system.mem_ctrls_1.readEnergy                 2714400                       # Energy for read commands per rank (pJ)
system.mem_ctrls_1.writeEnergy                      0                       # Energy for write commands per rank (pJ)
system.mem_ctrls_1.refreshEnergy              2034240                       # Energy for refresh commands per rank (pJ)
system.mem_ctrls_1.actBackEnergy             20622600                       # Energy for active background per rank (pJ)
system.mem_ctrls_1.preBackEnergy               753000                       # Energy for precharge background per rank (pJ)
system.mem_ctrls_1.totalEnergy               26813655                       # Total energy per rank (pJ)
system.mem_ctrls_1.averagePower            853.802102                       # Core power per rank (mW)
system.mem_ctrls_1.memoryStateTime::IDLE      1278250                       # Time in different power states
system.mem_ctrls_1.memoryStateTime::REF       1040000                       # Time in different power states
system.mem_ctrls_1.memoryStateTime::PRE_PDN            0                       # Time in different power states
system.mem_ctrls_1.memoryStateTime::ACT      29275750                       # Time in different power states
system.mem_ctrls_1.memoryStateTime::ACT_PDN            0                       # Time in different power states
system.cpu.branchPred.lookups                    5523                       # Number of BP lookups
system.cpu.branchPred.condPredicted              3659                       # Number of conditional branches predicted
system.cpu.branchPred.condIncorrect              1005                       # Number of conditional branches incorrect
system.cpu.branchPred.BTBLookups                 1572                       # Number of BTB lookups
system.cpu.branchPred.BTBHits                     923                       # Number of BTB hits
system.cpu.branchPred.BTBCorrect                    0                       # Number of correct BTB predictions (this stat may not work properly.
system.cpu.branchPred.BTBHitPct             58.715013                       # BTB Hit Percentage
system.cpu.branchPred.usedRAS                     555                       # Number of times the RAS was used to get a target.
system.cpu.branchPred.RASInCorrect                 46                       # Number of incorrect RAS predictions.
system.cpu_voltage_domain.voltage                   1                       # Voltage in Volts
system.cpu_clk_domain.clock                       500                       # Clock period in ticks
system.cpu.dstage2_mmu.stage2_tlb.walker.walks            0                       # Table walker walks requested
system.cpu.dstage2_mmu.stage2_tlb.walker.walkRequestOrigin_Requested::Data            0                       # Table walker requests started/completed, data/inst
system.cpu.dstage2_mmu.stage2_tlb.walker.walkRequestOrigin_Requested::Inst            0                       # Table walker requests started/completed, data/inst
system.cpu.dstage2_mmu.stage2_tlb.walker.walkRequestOrigin_Requested::total            0                       # Table walker requests started/completed, data/inst
system.cpu.dstage2_mmu.stage2_tlb.walker.walkRequestOrigin_Completed::Data            0                       # Table walker requests started/completed, data/inst
system.cpu.dstage2_mmu.stage2_tlb.walker.walkRequestOrigin_Completed::Inst            0                       # Table walker requests started/completed, data/inst
system.cpu.dstage2_mmu.stage2_tlb.walker.walkRequestOrigin_Completed::total            0                       # Table walker requests started/completed, data/inst
system.cpu.dstage2_mmu.stage2_tlb.walker.walkRequestOrigin::total            0                       # Table walker requests started/completed, data/inst
system.cpu.dstage2_mmu.stage2_tlb.inst_hits            0                       # ITB inst hits
system.cpu.dstage2_mmu.stage2_tlb.inst_misses            0                       # ITB inst misses
system.cpu.dstage2_mmu.stage2_tlb.read_hits            0                       # DTB read hits
system.cpu.dstage2_mmu.stage2_tlb.read_misses            0                       # DTB read misses
system.cpu.dstage2_mmu.stage2_tlb.write_hits            0                       # DTB write hits
system.cpu.dstage2_mmu.stage2_tlb.write_misses            0                       # DTB write misses
system.cpu.dstage2_mmu.stage2_tlb.flush_tlb            0                       # Number of times complete TLB was flushed
system.cpu.dstage2_mmu.stage2_tlb.flush_tlb_mva            0                       # Number of times TLB was flushed by MVA
system.cpu.dstage2_mmu.stage2_tlb.flush_tlb_mva_asid            0                       # Number of times TLB was flushed by MVA & ASID
system.cpu.dstage2_mmu.stage2_tlb.flush_tlb_asid            0                       # Number of times TLB was flushed by ASID
system.cpu.dstage2_mmu.stage2_tlb.flush_entries            0                       # Number of entries that have been flushed from TLB
system.cpu.dstage2_mmu.stage2_tlb.align_faults            0                       # Number of TLB faults due to alignment restrictions
system.cpu.dstage2_mmu.stage2_tlb.prefetch_faults            0                       # Number of TLB faults due to prefetch
system.cpu.dstage2_mmu.stage2_tlb.domain_faults            0                       # Number of TLB faults due to domain restrictions
system.cpu.dstage2_mmu.stage2_tlb.perms_faults            0                       # Number of TLB faults due to permissions restrictions
system.cpu.dstage2_mmu.stage2_tlb.read_accesses            0                       # DTB read accesses
system.cpu.dstage2_mmu.stage2_tlb.write_accesses            0                       # DTB write accesses
system.cpu.dstage2_mmu.stage2_tlb.inst_accesses            0                       # ITB inst accesses
system.cpu.dstage2_mmu.stage2_tlb.hits              0                       # DTB hits
system.cpu.dstage2_mmu.stage2_tlb.misses            0                       # DTB misses
system.cpu.dstage2_mmu.stage2_tlb.accesses            0                       # DTB accesses
system.cpu.dtb.walker.walks                         0                       # Table walker walks requested
system.cpu.dtb.walker.walkRequestOrigin_Requested::Data            0                       # Table walker requests started/completed, data/inst
system.cpu.dtb.walker.walkRequestOrigin_Requested::Inst            0                       # Table walker requests started/completed, data/inst
system.cpu.dtb.walker.walkRequestOrigin_Requested::total            0                       # Table walker requests started/completed, data/inst
system.cpu.dtb.walker.walkRequestOrigin_Completed::Data            0                       # Table walker requests started/completed, data/inst
system.cpu.dtb.walker.walkRequestOrigin_Completed::Inst            0                       # Table walker requests started/completed, data/inst
system.cpu.dtb.walker.walkRequestOrigin_Completed::total            0                       # Table walker requests started/completed, data/inst
system.cpu.dtb.walker.walkRequestOrigin::total            0                       # Table walker requests started/completed, data/inst
system.cpu.dtb.inst_hits                            0                       # ITB inst hits
system.cpu.dtb.inst_misses                          0                       # ITB inst misses
system.cpu.dtb.read_hits                            0                       # DTB read hits
system.cpu.dtb.read_misses                          0                       # DTB read misses
system.cpu.dtb.write_hits                           0                       # DTB write hits
system.cpu.dtb.write_misses                         0                       # DTB write misses
system.cpu.dtb.flush_tlb                            0                       # Number of times complete TLB was flushed
system.cpu.dtb.flush_tlb_mva                        0                       # Number of times TLB was flushed by MVA
system.cpu.dtb.flush_tlb_mva_asid                   0                       # Number of times TLB was flushed by MVA & ASID
system.cpu.dtb.flush_tlb_asid                       0                       # Number of times TLB was flushed by ASID
system.cpu.dtb.flush_entries                        0                       # Number of entries that have been flushed from TLB
system.cpu.dtb.align_faults                         0                       # Number of TLB faults due to alignment restrictions
system.cpu.dtb.prefetch_faults                      0                       # Number of TLB faults due to prefetch
system.cpu.dtb.domain_faults                        0                       # Number of TLB faults due to domain restrictions
system.cpu.dtb.perms_faults                         0                       # Number of TLB faults due to permissions restrictions
system.cpu.dtb.read_accesses                        0                       # DTB read accesses
system.cpu.dtb.write_accesses                       0                       # DTB write accesses
system.cpu.dtb.inst_accesses                        0                       # ITB inst accesses
system.cpu.dtb.hits                                 0                       # DTB hits
system.cpu.dtb.misses                               0                       # DTB misses
system.cpu.dtb.accesses                             0                       # DTB accesses
system.cpu.istage2_mmu.stage2_tlb.walker.walks            0                       # Table walker walks requested
system.cpu.istage2_mmu.stage2_tlb.walker.walkRequestOrigin_Requested::Data            0                       # Table walker requests started/completed, data/inst
system.cpu.istage2_mmu.stage2_tlb.walker.walkRequestOrigin_Requested::Inst            0                       # Table walker requests started/completed, data/inst
system.cpu.istage2_mmu.stage2_tlb.walker.walkRequestOrigin_Requested::total            0                       # Table walker requests started/completed, data/inst
system.cpu.istage2_mmu.stage2_tlb.walker.walkRequestOrigin_Completed::Data            0                       # Table walker requests started/completed, data/inst
system.cpu.istage2_mmu.stage2_tlb.walker.walkRequestOrigin_Completed::Inst            0                       # Table walker requests started/completed, data/inst
system.cpu.istage2_mmu.stage2_tlb.walker.walkRequestOrigin_Completed::total            0                       # Table walker requests started/completed, data/inst
system.cpu.istage2_mmu.stage2_tlb.walker.walkRequestOrigin::total            0                       # Table walker requests started/completed, data/inst
system.cpu.istage2_mmu.stage2_tlb.inst_hits            0                       # ITB inst hits
system.cpu.istage2_mmu.stage2_tlb.inst_misses            0                       # ITB inst misses
system.cpu.istage2_mmu.stage2_tlb.read_hits            0                       # DTB read hits
system.cpu.istage2_mmu.stage2_tlb.read_misses            0                       # DTB read misses
system.cpu.istage2_mmu.stage2_tlb.write_hits            0                       # DTB write hits
system.cpu.istage2_mmu.stage2_tlb.write_misses            0                       # DTB write misses
system.cpu.istage2_mmu.stage2_tlb.flush_tlb            0                       # Number of times complete TLB was flushed
system.cpu.istage2_mmu.stage2_tlb.flush_tlb_mva            0                       # Number of times TLB was flushed by MVA
system.cpu.istage2_mmu.stage2_tlb.flush_tlb_mva_asid            0                       # Number of times TLB was flushed by MVA & ASID
system.cpu.istage2_mmu.stage2_tlb.flush_tlb_asid            0                       # Number of times TLB was flushed by ASID
system.cpu.istage2_mmu.stage2_tlb.flush_entries            0                       # Number of entries that have been flushed from TLB
system.cpu.istage2_mmu.stage2_tlb.align_faults            0                       # Number of TLB faults due to alignment restrictions
system.cpu.istage2_mmu.stage2_tlb.prefetch_faults            0                       # Number of TLB faults due to prefetch
system.cpu.istage2_mmu.stage2_tlb.domain_faults            0                       # Number of TLB faults due to domain restrictions
system.cpu.istage2_mmu.stage2_tlb.perms_faults            0                       # Number of TLB faults due to permissions restrictions
system.cpu.istage2_mmu.stage2_tlb.read_accesses            0                       # DTB read accesses
system.cpu.istage2_mmu.stage2_tlb.write_accesses            0                       # DTB write accesses
system.cpu.istage2_mmu.stage2_tlb.inst_accesses            0                       # ITB inst accesses
system.cpu.istage2_mmu.stage2_tlb.hits              0                       # DTB hits
system.cpu.istage2_mmu.stage2_tlb.misses            0                       # DTB misses
system.cpu.istage2_mmu.stage2_tlb.accesses            0                       # DTB accesses
system.cpu.itb.walker.walks                         0                       # Table walker walks requested
system.cpu.itb.walker.walkRequestOrigin_Requested::Data            0                       # Table walker requests started/completed, data/inst
system.cpu.itb.walker.walkRequestOrigin_Requested::Inst            0                       # Table walker requests started/completed, data/inst
system.cpu.itb.walker.walkRequestOrigin_Requested::total            0                       # Table walker requests started/completed, data/inst
system.cpu.itb.walker.walkRequestOrigin_Completed::Data            0                       # Table walker requests started/completed, data/inst
system.cpu.itb.walker.walkRequestOrigin_Completed::Inst            0                       # Table walker requests started/completed, data/inst
system.cpu.itb.walker.walkRequestOrigin_Completed::total            0                       # Table walker requests started/completed, data/inst
system.cpu.itb.walker.walkRequestOrigin::total            0                       # Table walker requests started/completed, data/inst
system.cpu.itb.inst_hits                            0                       # ITB inst hits
system.cpu.itb.inst_misses                          0                       # ITB inst misses
system.cpu.itb.read_hits                            0                       # DTB read hits
system.cpu.itb.read_misses                          0                       # DTB read misses
system.cpu.itb.write_hits                           0                       # DTB write hits
system.cpu.itb.write_misses                         0                       # DTB write misses
system.cpu.itb.flush_tlb                            0                       # Number of times complete TLB was flushed
system.cpu.itb.flush_tlb_mva                        0                       # Number of times TLB was flushed by MVA
system.cpu.itb.flush_tlb_mva_asid                   0                       # Number of times TLB was flushed by MVA & ASID
system.cpu.itb.flush_tlb_asid                       0                       # Number of times TLB was flushed by ASID
system.cpu.itb.flush_entries                        0                       # Number of entries that have been flushed from TLB
system.cpu.itb.align_faults                         0                       # Number of TLB faults due to alignment restrictions
system.cpu.itb.prefetch_faults                      0                       # Number of TLB faults due to prefetch
system.cpu.itb.domain_faults                        0                       # Number of TLB faults due to domain restrictions
system.cpu.itb.perms_faults                         0                       # Number of TLB faults due to permissions restrictions
system.cpu.itb.read_accesses                        0                       # DTB read accesses
system.cpu.itb.write_accesses                       0                       # DTB write accesses
system.cpu.itb.inst_accesses                        0                       # ITB inst accesses
system.cpu.itb.hits                                 0                       # DTB hits
system.cpu.itb.misses                               0                       # DTB misses
system.cpu.itb.accesses                             0                       # DTB accesses
system.cpu.workload.num_syscalls                   12                       # Number of system calls
system.cpu.numCycles                            74117                       # number of cpu cycles simulated
system.cpu.numWorkItemsStarted                      0                       # number of work items this cpu started
system.cpu.numWorkItemsCompleted                    0                       # number of work items this cpu completed
system.cpu.fetch.icacheStallCycles              14084                       # Number of cycles fetch is stalled on an Icache miss
system.cpu.fetch.Insts                          28127                       # Number of instructions fetch has processed
system.cpu.fetch.Branches                        5523                       # Number of branches that fetch encountered
system.cpu.fetch.predictedBranches               1478                       # Number of branches that fetch has predicted taken
system.cpu.fetch.Cycles                         27029                       # Number of cycles fetch has run and was not squashing or blocked
system.cpu.fetch.SquashCycles                    2065                       # Number of cycles fetch has spent squashing
system.cpu.fetch.MiscStallCycles                  185                       # Number of cycles fetch has spent waiting on interrupts, or bad addresses, or out of MSHRs
system.cpu.fetch.PendingTrapStallCycles           774                       # Number of stall cycles due to pending traps
system.cpu.fetch.IcacheWaitRetryStallCycles          734                       # Number of stall cycles due to full MSHR
system.cpu.fetch.CacheLines                      9110                       # Number of cache lines fetched
system.cpu.fetch.IcacheSquashes                   345                       # Number of outstanding Icache misses that were squashed
system.cpu.fetch.rateDist::samples              43838                       # Number of instructions fetched each cycle (Total)
system.cpu.fetch.rateDist::mean              0.744491                       # Number of instructions fetched each cycle (Total)
system.cpu.fetch.rateDist::stdev             1.158051                       # Number of instructions fetched each cycle (Total)
system.cpu.fetch.rateDist::underflows               0      0.00%      0.00% # Number of instructions fetched each cycle (Total)
system.cpu.fetch.rateDist::0                    28514     65.04%     65.04% # Number of instructions fetched each cycle (Total)
system.cpu.fetch.rateDist::1                     5923     13.51%     78.56% # Number of instructions fetched each cycle (Total)
system.cpu.fetch.rateDist::2                     1489      3.40%     81.95% # Number of instructions fetched each cycle (Total)
system.cpu.fetch.rateDist::3                     7912     18.05%    100.00% # Number of instructions fetched each cycle (Total)
system.cpu.fetch.rateDist::overflows                0      0.00%    100.00% # Number of instructions fetched each cycle (Total)
system.cpu.fetch.rateDist::min_value                0                       # Number of instructions fetched each cycle (Total)
system.cpu.fetch.rateDist::max_value                3                       # Number of instructions fetched each cycle (Total)
system.cpu.fetch.rateDist::total                43838                       # Number of instructions fetched each cycle (Total)
system.cpu.fetch.branchRate                  0.074517                       # Number of branch fetches per cycle
system.cpu.fetch.rate                        0.379495                       # Number of inst fetches per cycle
system.cpu.decode.IdleCycles                    12765                       # Number of cycles decode is idle
system.cpu.decode.BlockedCycles                 18737                       # Number of cycles decode is blocked
system.cpu.decode.RunCycles                     11028                       # Number of cycles decode is running
system.cpu.decode.UnblockCycles                   544                       # Number of cycles decode is unblocking
system.cpu.decode.SquashCycles                    764                       # Number of cycles decode is squashing
system.cpu.decode.BranchResolved                  677                       # Number of times decode resolved a branch
system.cpu.decode.BranchMispred                   287                       # Number of times decode detected a branch misprediction
system.cpu.decode.DecodedInsts                  23332                       # Number of instructions handled by decode
system.cpu.decode.SquashedInsts                  2875                       # Number of squashed instructions handled by decode
system.cpu.rename.SquashCycles                    764                       # Number of cycles rename is squashing
system.cpu.rename.IdleCycles                    15001                       # Number of cycles rename is idle
system.cpu.rename.BlockCycles                   10892                       # Number of cycles rename is blocking
system.cpu.rename.serializeStallCycles           4615                       # count of cycles rename stalled for serializing inst
system.cpu.rename.RunCycles                      9234                       # Number of cycles rename is running
system.cpu.rename.UnblockCycles                  3332                       # Number of cycles rename is unblocking
system.cpu.rename.RenamedInsts                  20957                       # Number of instructions processed by rename
system.cpu.rename.SquashedInsts                   870                       # Number of squashed instructions processed by rename
system.cpu.rename.ROBFullEvents                   430                       # Number of times rename has blocked due to ROB full
system.cpu.rename.IQFullEvents                     20                       # Number of times rename has blocked due to IQ full
system.cpu.rename.LQFullEvents                    185                       # Number of times rename has blocked due to LQ full
system.cpu.rename.SQFullEvents                   2638                       # Number of times rename has blocked due to SQ full
system.cpu.rename.RenamedOperands               22245                       # Number of destination operands rename has renamed
system.cpu.rename.RenameLookups                 95852                       # Number of register rename lookups that rename has made
system.cpu.rename.int_rename_lookups            24245                       # Number of integer rename lookups
system.cpu.rename.fp_rename_lookups                16                       # Number of floating rename lookups
system.cpu.rename.CommittedMaps                 13035                       # Number of HB maps that are committed
system.cpu.rename.UndoneMaps                     9210                       # Number of HB maps that are undone due to squashing
system.cpu.rename.serializingInsts                 55                       # count of serializing insts renamed
system.cpu.rename.tempSerializingInsts             55                       # count of temporary serializing insts renamed
system.cpu.rename.skidInsts                      1589                       # count of insts added to the skid buffer
system.cpu.memDep0.insertedLoads                 4044                       # Number of loads inserted to the mem dependence unit.
system.cpu.memDep0.insertedStores                2976                       # Number of stores inserted to the mem dependence unit.
system.cpu.memDep0.conflictingLoads                45                       # Number of conflicting loads.
system.cpu.memDep0.conflictingStores                0                       # Number of conflicting stores.
system.cpu.iq.iqInstsAdded                      19903                       # Number of instructions added to the IQ (excludes non-spec)
system.cpu.iq.iqNonSpecInstsAdded                  79                       # Number of non-speculative instructions added to the IQ
system.cpu.iq.iqInstsIssued                     16902                       # Number of instructions issued
system.cpu.iq.iqSquashedInstsIssued               332                       # Number of squashed instructions issued
system.cpu.iq.iqSquashedInstsExamined            7367                       # Number of squashed instructions iterated over during squash; mainly for profiling
system.cpu.iq.iqSquashedOperandsExamined        19439                       # Number of squashed operands that are examined and possibly removed from graph
system.cpu.iq.iqSquashedNonSpecRemoved             14                       # Number of squashed non-spec instructions that were removed
system.cpu.iq.issued_per_cycle::samples         43838                       # Number of insts issued each cycle
system.cpu.iq.issued_per_cycle::mean         0.385556                       # Number of insts issued each cycle
system.cpu.iq.issued_per_cycle::stdev        0.783020                       # Number of insts issued each cycle
system.cpu.iq.issued_per_cycle::underflows            0      0.00%      0.00% # Number of insts issued each cycle
system.cpu.iq.issued_per_cycle::0               33611     76.67%     76.67% # Number of insts issued each cycle
system.cpu.iq.issued_per_cycle::1                5067     11.56%     88.23% # Number of insts issued each cycle
system.cpu.iq.issued_per_cycle::2                3701      8.44%     96.67% # Number of insts issued each cycle
system.cpu.iq.issued_per_cycle::3                1403      3.20%     99.87% # Number of insts issued each cycle
system.cpu.iq.issued_per_cycle::4                  56      0.13%    100.00% # Number of insts issued each cycle
system.cpu.iq.issued_per_cycle::5                   0      0.00%    100.00% # Number of insts issued each cycle
system.cpu.iq.issued_per_cycle::6                   0      0.00%    100.00% # Number of insts issued each cycle
system.cpu.iq.issued_per_cycle::7                   0      0.00%    100.00% # Number of insts issued each cycle
system.cpu.iq.issued_per_cycle::8                   0      0.00%    100.00% # Number of insts issued each cycle
system.cpu.iq.issued_per_cycle::overflows            0      0.00%    100.00% # Number of insts issued each cycle
system.cpu.iq.issued_per_cycle::min_value            0                       # Number of insts issued each cycle
system.cpu.iq.issued_per_cycle::max_value            4                       # Number of insts issued each cycle
system.cpu.iq.issued_per_cycle::total           43838                       # Number of insts issued each cycle
system.cpu.iq.fu_full::No_OpClass                   0      0.00%      0.00% # attempts to use FU when none available
system.cpu.iq.fu_full::IntAlu                    1009     32.23%     32.23% # attempts to use FU when none available
system.cpu.iq.fu_full::IntMult                      0      0.00%     32.23% # attempts to use FU when none available
system.cpu.iq.fu_full::IntDiv                       0      0.00%     32.23% # attempts to use FU when none available
system.cpu.iq.fu_full::FloatAdd                     0      0.00%     32.23% # attempts to use FU when none available
system.cpu.iq.fu_full::FloatCmp                     0      0.00%     32.23% # attempts to use FU when none available
system.cpu.iq.fu_full::FloatCvt                     0      0.00%     32.23% # attempts to use FU when none available
system.cpu.iq.fu_full::FloatMult                    0      0.00%     32.23% # attempts to use FU when none available
system.cpu.iq.fu_full::FloatDiv                     0      0.00%     32.23% # attempts to use FU when none available
system.cpu.iq.fu_full::FloatSqrt                    0      0.00%     32.23% # attempts to use FU when none available
system.cpu.iq.fu_full::SimdAdd                      0      0.00%     32.23% # attempts to use FU when none available
system.cpu.iq.fu_full::SimdAddAcc                   0      0.00%     32.23% # attempts to use FU when none available
system.cpu.iq.fu_full::SimdAlu                      0      0.00%     32.23% # attempts to use FU when none available
system.cpu.iq.fu_full::SimdCmp                      0      0.00%     32.23% # attempts to use FU when none available
system.cpu.iq.fu_full::SimdCvt                      0      0.00%     32.23% # attempts to use FU when none available
system.cpu.iq.fu_full::SimdMisc                     0      0.00%     32.23% # attempts to use FU when none available
system.cpu.iq.fu_full::SimdMult                     0      0.00%     32.23% # attempts to use FU when none available
system.cpu.iq.fu_full::SimdMultAcc                  0      0.00%     32.23% # attempts to use FU when none available
system.cpu.iq.fu_full::SimdShift                    0      0.00%     32.23% # attempts to use FU when none available
system.cpu.iq.fu_full::SimdShiftAcc                 0      0.00%     32.23% # attempts to use FU when none available
system.cpu.iq.fu_full::SimdSqrt                     0      0.00%     32.23% # attempts to use FU when none available
system.cpu.iq.fu_full::SimdFloatAdd                 0      0.00%     32.23% # attempts to use FU when none available
system.cpu.iq.fu_full::SimdFloatAlu                 0      0.00%     32.23% # attempts to use FU when none available
system.cpu.iq.fu_full::SimdFloatCmp                 0      0.00%     32.23% # attempts to use FU when none available
system.cpu.iq.fu_full::SimdFloatCvt                 0      0.00%     32.23% # attempts to use FU when none available
system.cpu.iq.fu_full::SimdFloatDiv                 0      0.00%     32.23% # attempts to use FU when none available
system.cpu.iq.fu_full::SimdFloatMisc                0      0.00%     32.23% # attempts to use FU when none available
system.cpu.iq.fu_full::SimdFloatMult                0      0.00%     32.23% # attempts to use FU when none available
system.cpu.iq.fu_full::SimdFloatMultAcc             0      0.00%     32.23% # attempts to use FU when none available
system.cpu.iq.fu_full::SimdFloatSqrt                0      0.00%     32.23% # attempts to use FU when none available
system.cpu.iq.fu_full::MemRead                    993     31.72%     63.94% # attempts to use FU when none available
system.cpu.iq.fu_full::MemWrite                  1129     36.06%    100.00% # attempts to use FU when none available
system.cpu.iq.fu_full::IprAccess                    0      0.00%    100.00% # attempts to use FU when none available
system.cpu.iq.fu_full::InstPrefetch                 0      0.00%    100.00% # attempts to use FU when none available
system.cpu.iq.FU_type_0::No_OpClass                 0      0.00%      0.00% # Type of FU issued
system.cpu.iq.FU_type_0::IntAlu                 10842     64.15%     64.15% # Type of FU issued
system.cpu.iq.FU_type_0::IntMult                    5      0.03%     64.18% # Type of FU issued
system.cpu.iq.FU_type_0::IntDiv                     0      0.00%     64.18% # Type of FU issued
system.cpu.iq.FU_type_0::FloatAdd                   0      0.00%     64.18% # Type of FU issued
system.cpu.iq.FU_type_0::FloatCmp                   0      0.00%     64.18% # Type of FU issued
system.cpu.iq.FU_type_0::FloatCvt                   0      0.00%     64.18% # Type of FU issued
system.cpu.iq.FU_type_0::FloatMult                  0      0.00%     64.18% # Type of FU issued
system.cpu.iq.FU_type_0::FloatDiv                   0      0.00%     64.18% # Type of FU issued
system.cpu.iq.FU_type_0::FloatSqrt                  0      0.00%     64.18% # Type of FU issued
system.cpu.iq.FU_type_0::SimdAdd                    0      0.00%     64.18% # Type of FU issued
system.cpu.iq.FU_type_0::SimdAddAcc                 0      0.00%     64.18% # Type of FU issued
system.cpu.iq.FU_type_0::SimdAlu                    0      0.00%     64.18% # Type of FU issued
system.cpu.iq.FU_type_0::SimdCmp                    0      0.00%     64.18% # Type of FU issued
system.cpu.iq.FU_type_0::SimdCvt                    0      0.00%     64.18% # Type of FU issued
system.cpu.iq.FU_type_0::SimdMisc                   0      0.00%     64.18% # Type of FU issued
system.cpu.iq.FU_type_0::SimdMult                   0      0.00%     64.18% # Type of FU issued
system.cpu.iq.FU_type_0::SimdMultAcc                0      0.00%     64.18% # Type of FU issued
system.cpu.iq.FU_type_0::SimdShift                  0      0.00%     64.18% # Type of FU issued
system.cpu.iq.FU_type_0::SimdShiftAcc               0      0.00%     64.18% # Type of FU issued
system.cpu.iq.FU_type_0::SimdSqrt                   0      0.00%     64.18% # Type of FU issued
system.cpu.iq.FU_type_0::SimdFloatAdd               0      0.00%     64.18% # Type of FU issued
system.cpu.iq.FU_type_0::SimdFloatAlu               0      0.00%     64.18% # Type of FU issued
system.cpu.iq.FU_type_0::SimdFloatCmp               0      0.00%     64.18% # Type of FU issued
system.cpu.iq.FU_type_0::SimdFloatCvt               0      0.00%     64.18% # Type of FU issued
system.cpu.iq.FU_type_0::SimdFloatDiv               0      0.00%     64.18% # Type of FU issued
system.cpu.iq.FU_type_0::SimdFloatMisc              0      0.00%     64.18% # Type of FU issued
system.cpu.iq.FU_type_0::SimdFloatMult              0      0.00%     64.18% # Type of FU issued
system.cpu.iq.FU_type_0::SimdFloatMultAcc            0      0.00%     64.18% # Type of FU issued
system.cpu.iq.FU_type_0::SimdFloatSqrt              0      0.00%     64.18% # Type of FU issued
system.cpu.iq.FU_type_0::MemRead                 3482     20.60%     84.78% # Type of FU issued
system.cpu.iq.FU_type_0::MemWrite                2573     15.22%    100.00% # Type of FU issued
system.cpu.iq.FU_type_0::IprAccess                  0      0.00%    100.00% # Type of FU issued
system.cpu.iq.FU_type_0::InstPrefetch               0      0.00%    100.00% # Type of FU issued
system.cpu.iq.FU_type_0::total                  16902                       # Type of FU issued
system.cpu.iq.rate                           0.228045                       # Inst issue rate
system.cpu.iq.fu_busy_cnt                        3131                       # FU busy when requested
system.cpu.iq.fu_busy_rate                   0.185244                       # FU busy rate (busy events/executed inst)
system.cpu.iq.int_inst_queue_reads              81061                       # Number of integer instruction queue reads
system.cpu.iq.int_inst_queue_writes             27352                       # Number of integer instruction queue writes
system.cpu.iq.int_inst_queue_wakeup_accesses        15446                       # Number of integer instruction queue wakeup accesses
system.cpu.iq.fp_inst_queue_reads                  44                       # Number of floating instruction queue reads
system.cpu.iq.fp_inst_queue_writes                 16                       # Number of floating instruction queue writes
system.cpu.iq.fp_inst_queue_wakeup_accesses           16                       # Number of floating instruction queue wakeup accesses
system.cpu.iq.int_alu_accesses                  20005                       # Number of integer alu accesses
system.cpu.iq.fp_alu_accesses                      28                       # Number of floating point alu accesses
system.cpu.iew.lsq.thread0.forwLoads               19                       # Number of loads that had data forwarded from stores
system.cpu.iew.lsq.thread0.invAddrLoads             0                       # Number of loads ignored due to an invalid address
system.cpu.iew.lsq.thread0.squashedLoads         1825                       # Number of loads squashed
system.cpu.iew.lsq.thread0.ignoredResponses            1                       # Number of memory responses ignored because the instruction is squashed
system.cpu.iew.lsq.thread0.memOrderViolation           19                       # Number of memory ordering violations
system.cpu.iew.lsq.thread0.squashedStores          886                       # Number of stores squashed
system.cpu.iew.lsq.thread0.invAddrSwpfs             0                       # Number of software prefetches ignored due to an invalid address
system.cpu.iew.lsq.thread0.blockedLoads             0                       # Number of blocked loads due to partial load-store forwarding
system.cpu.iew.lsq.thread0.rescheduledLoads           31                       # Number of loads that were rescheduled
system.cpu.iew.lsq.thread0.cacheBlocked            83                       # Number of times an access to memory failed due to the cache being blocked
system.cpu.iew.iewIdleCycles                        0                       # Number of cycles IEW is idle
system.cpu.iew.iewSquashCycles                    764                       # Number of cycles IEW is squashing
system.cpu.iew.iewBlockCycles                    1233                       # Number of cycles IEW is blocking
system.cpu.iew.iewUnblockCycles                   352                       # Number of cycles IEW is unblocking
system.cpu.iew.iewDispatchedInsts               19991                       # Number of instructions dispatched to IQ
system.cpu.iew.iewDispSquashedInsts                 0                       # Number of squashed instructions skipped by dispatch
system.cpu.iew.iewDispLoadInsts                  4044                       # Number of dispatched load instructions
system.cpu.iew.iewDispStoreInsts                 2976                       # Number of dispatched store instructions
system.cpu.iew.iewDispNonSpecInsts                 52                       # Number of dispatched non-speculative instructions
system.cpu.iew.iewIQFullEvents                     18                       # Number of times the IQ has become full, causing a stall
system.cpu.iew.iewLSQFullEvents                   331                       # Number of times the LSQ has become full, causing a stall
system.cpu.iew.memOrderViolationEvents             19                       # Number of memory order violations
system.cpu.iew.predictedTakenIncorrect             73                       # Number of branches that were predicted taken incorrectly
system.cpu.iew.predictedNotTakenIncorrect          692                       # Number of branches that were predicted not taken incorrectly
system.cpu.iew.branchMispredicts                  765                       # Number of branch mispredicts detected at execute
system.cpu.iew.iewExecutedInsts                 15976                       # Number of executed instructions
system.cpu.iew.iewExecLoadInsts                  3058                       # Number of load instructions executed
system.cpu.iew.iewExecSquashedInsts               926                       # Number of squashed instructions skipped in execute
system.cpu.iew.exec_swp                             0                       # number of swp insts executed
system.cpu.iew.exec_nop                             9                       # number of nop insts executed
system.cpu.iew.exec_refs                         5533                       # number of memory reference insts executed
system.cpu.iew.exec_branches                     2732                       # Number of branches executed
system.cpu.iew.exec_stores                       2475                       # Number of stores executed
system.cpu.iew.exec_rate                     0.215551                       # Inst execution rate
system.cpu.iew.wb_sent                          15542                       # cumulative count of insts sent to commit
system.cpu.iew.wb_count                         15462                       # cumulative count of insts written-back
system.cpu.iew.wb_producers                      7715                       # num instructions producing a value
system.cpu.iew.wb_consumers                     12731                       # num instructions consuming a value
system.cpu.iew.wb_penalized                         0                       # number of instrctions required to write to 'other' IQ
system.cpu.iew.wb_rate                       0.208616                       # insts written-back per cycle
system.cpu.iew.wb_fanout                     0.606001                       # average fanout of values written-back
system.cpu.iew.wb_penalized_rate                    0                       # fraction of instructions written-back that wrote to 'other' IQ
system.cpu.commit.commitSquashedInsts            6403                       # The number of squashed insts skipped by commit
system.cpu.commit.commitNonSpecStalls              65                       # The number of times commit has been forced to stall to communicate backwards
system.cpu.commit.branchMispredicts               737                       # The number of times a branch was mispredicted
system.cpu.commit.committed_per_cycle::samples        42575                       # Number of insts commited each cycle
system.cpu.commit.committed_per_cycle::mean     0.296301                       # Number of insts commited each cycle
system.cpu.commit.committed_per_cycle::stdev     0.999591                       # Number of insts commited each cycle
system.cpu.commit.committed_per_cycle::underflows            0      0.00%      0.00% # Number of insts commited each cycle
system.cpu.commit.committed_per_cycle::0        36853     86.56%     86.56% # Number of insts commited each cycle
system.cpu.commit.committed_per_cycle::1         2913      6.84%     93.40% # Number of insts commited each cycle
system.cpu.commit.committed_per_cycle::2         1239      2.91%     96.31% # Number of insts commited each cycle
system.cpu.commit.committed_per_cycle::3          591      1.39%     97.70% # Number of insts commited each cycle
system.cpu.commit.committed_per_cycle::4          428      1.01%     98.71% # Number of insts commited each cycle
system.cpu.commit.committed_per_cycle::5          136      0.32%     99.03% # Number of insts commited each cycle
system.cpu.commit.committed_per_cycle::6           98      0.23%     99.26% # Number of insts commited each cycle
system.cpu.commit.committed_per_cycle::7           65      0.15%     99.41% # Number of insts commited each cycle
system.cpu.commit.committed_per_cycle::8          252      0.59%    100.00% # Number of insts commited each cycle
system.cpu.commit.committed_per_cycle::overflows            0      0.00%    100.00% # Number of insts commited each cycle
system.cpu.commit.committed_per_cycle::min_value            0                       # Number of insts commited each cycle
system.cpu.commit.committed_per_cycle::max_value            8                       # Number of insts commited each cycle
system.cpu.commit.committed_per_cycle::total        42575                       # Number of insts commited each cycle
system.cpu.commit.committedInsts                10782                       # Number of instructions committed
system.cpu.commit.committedOps                  12615                       # Number of ops (including micro ops) committed
system.cpu.commit.swp_count                         0                       # Number of s/w prefetches committed
system.cpu.commit.refs                           4309                       # Number of memory references committed
system.cpu.commit.loads                          2219                       # Number of loads committed
system.cpu.commit.membars                          26                       # Number of memory barriers committed
system.cpu.commit.branches                       2196                       # Number of branches committed
system.cpu.commit.fp_insts                         16                       # Number of committed floating point instructions.
system.cpu.commit.int_insts                     10937                       # Number of committed integer instructions.
system.cpu.commit.function_calls                  202                       # Number of function calls committed.
system.cpu.commit.op_class_0::No_OpClass            0      0.00%      0.00% # Class of committed instruction
system.cpu.commit.op_class_0::IntAlu             8301     65.80%     65.80% # Class of committed instruction
system.cpu.commit.op_class_0::IntMult               5      0.04%     65.84% # Class of committed instruction
system.cpu.commit.op_class_0::IntDiv                0      0.00%     65.84% # Class of committed instruction
system.cpu.commit.op_class_0::FloatAdd              0      0.00%     65.84% # Class of committed instruction
system.cpu.commit.op_class_0::FloatCmp              0      0.00%     65.84% # Class of committed instruction
system.cpu.commit.op_class_0::FloatCvt              0      0.00%     65.84% # Class of committed instruction
system.cpu.commit.op_class_0::FloatMult             0      0.00%     65.84% # Class of committed instruction
system.cpu.commit.op_class_0::FloatDiv              0      0.00%     65.84% # Class of committed instruction
system.cpu.commit.op_class_0::FloatSqrt             0      0.00%     65.84% # Class of committed instruction
system.cpu.commit.op_class_0::SimdAdd               0      0.00%     65.84% # Class of committed instruction
system.cpu.commit.op_class_0::SimdAddAcc            0      0.00%     65.84% # Class of committed instruction
system.cpu.commit.op_class_0::SimdAlu               0      0.00%     65.84% # Class of committed instruction
system.cpu.commit.op_class_0::SimdCmp               0      0.00%     65.84% # Class of committed instruction
system.cpu.commit.op_class_0::SimdCvt               0      0.00%     65.84% # Class of committed instruction
system.cpu.commit.op_class_0::SimdMisc              0      0.00%     65.84% # Class of committed instruction
system.cpu.commit.op_class_0::SimdMult              0      0.00%     65.84% # Class of committed instruction
system.cpu.commit.op_class_0::SimdMultAcc            0      0.00%     65.84% # Class of committed instruction
system.cpu.commit.op_class_0::SimdShift             0      0.00%     65.84% # Class of committed instruction
system.cpu.commit.op_class_0::SimdShiftAcc            0      0.00%     65.84% # Class of committed instruction
system.cpu.commit.op_class_0::SimdSqrt              0      0.00%     65.84% # Class of committed instruction
system.cpu.commit.op_class_0::SimdFloatAdd            0      0.00%     65.84% # Class of committed instruction
system.cpu.commit.op_class_0::SimdFloatAlu            0      0.00%     65.84% # Class of committed instruction
system.cpu.commit.op_class_0::SimdFloatCmp            0      0.00%     65.84% # Class of committed instruction
system.cpu.commit.op_class_0::SimdFloatCvt            0      0.00%     65.84% # Class of committed instruction
system.cpu.commit.op_class_0::SimdFloatDiv            0      0.00%     65.84% # Class of committed instruction
system.cpu.commit.op_class_0::SimdFloatMisc            0      0.00%     65.84% # Class of committed instruction
system.cpu.commit.op_class_0::SimdFloatMult            0      0.00%     65.84% # Class of committed instruction
system.cpu.commit.op_class_0::SimdFloatMultAcc            0      0.00%     65.84% # Class of committed instruction
system.cpu.commit.op_class_0::SimdFloatSqrt            0      0.00%     65.84% # Class of committed instruction
system.cpu.commit.op_class_0::MemRead            2219     17.59%     83.43% # Class of committed instruction
system.cpu.commit.op_class_0::MemWrite           2090     16.57%    100.00% # Class of committed instruction
system.cpu.commit.op_class_0::IprAccess             0      0.00%    100.00% # Class of committed instruction
system.cpu.commit.op_class_0::InstPrefetch            0      0.00%    100.00% # Class of committed instruction
system.cpu.commit.op_class_0::total             12615                       # Class of committed instruction
system.cpu.commit.bw_lim_events                   252                       # number cycles where commit BW limit reached
system.cpu.rob.rob_reads                        61198                       # The number of ROB reads
system.cpu.rob.rob_writes                       39303                       # The number of ROB writes
system.cpu.timesIdled                             517                       # Number of times that the entire CPU went into an idle state and unscheduled itself
system.cpu.idleCycles                           30279                       # Total number of cycles that the CPU has spent unscheduled due to idling
[...]
system.cpu.dcache.WriteReq_mshr_hits::cpu.data          467                       # number of WriteReq MSHR hits
system.cpu.dcache.WriteReq_mshr_hits::total          467                       # number of WriteReq MSHR hits
system.cpu.dcache.LoadLockedReq_mshr_hits::cpu.data            4                       # number of LoadLockedReq MSHR hits
system.cpu.dcache.LoadLockedReq_mshr_hits::total            4                       # number of LoadLockedReq MSHR hits
system.cpu.dcache.demand_mshr_hits::cpu.data          866                       # number of demand (read+write) MSHR hits
system.cpu.dcache.demand_mshr_hits::total          866                       # number of demand (read+write) MSHR hits
system.cpu.dcache.overall_mshr_hits::cpu.data          866                       # number of overall MSHR hits
system.cpu.dcache.overall_mshr_hits::total          866                       # number of overall MSHR hits
system.cpu.dcache.ReadReq_mshr_misses::cpu.data          565                       # number of ReadReq MSHR misses
system.cpu.dcache.ReadReq_mshr_misses::total          565                       # number of ReadReq MSHR misses
system.cpu.dcache.WriteReq_mshr_misses::cpu.data          184                       # number of WriteReq MSHR misses
system.cpu.dcache.WriteReq_mshr_misses::total          184                       # number of WriteReq MSHR misses
system.cpu.dcache.LoadLockedReq_mshr_misses::cpu.data            1                       # number of LoadLockedReq MSHR misses
system.cpu.dcache.LoadLockedReq_mshr_misses::total            1                       # number of LoadLockedReq MSHR misses
system.cpu.dcache.demand_mshr_misses::cpu.data          749                       # number of demand (read+write) MSHR misses
system.cpu.dcache.demand_mshr_misses::total          749                       # number of demand (read+write) MSHR misses
system.cpu.dcache.overall_mshr_misses::cpu.data          749                       # number of overall MSHR misses
system.cpu.dcache.overall_mshr_misses::total          749                       # number of overall MSHR misses
system.cpu.dcache.ReadReq_mshr_miss_latency::cpu.data     27289000                       # number of ReadReq MSHR miss cycles
system.cpu.dcache.ReadReq_mshr_miss_latency::total     27289000                       # number of ReadReq MSHR miss cycles
system.cpu.dcache.WriteReq_mshr_miss_latency::cpu.data      7144750                       # number of WriteReq MSHR miss cycles
system.cpu.dcache.WriteReq_mshr_miss_latency::total      7144750                       # number of WriteReq MSHR miss cycles
system.cpu.dcache.LoadLockedReq_mshr_miss_latency::cpu.data        18000                       # number of LoadLockedReq MSHR miss cycles
system.cpu.dcache.LoadLockedReq_mshr_miss_latency::total        18000                       # number of LoadLockedReq MSHR miss cycles
system.cpu.dcache.demand_mshr_miss_latency::cpu.data     34433750                       # number of demand (read+write) MSHR miss cycles
system.cpu.dcache.demand_mshr_miss_latency::total     34433750                       # number of demand (read+write) MSHR miss cycles
system.cpu.dcache.overall_mshr_miss_latency::cpu.data     34433750                       # number of overall MSHR miss cycles
system.cpu.dcache.overall_mshr_miss_latency::total     34433750                       # number of overall MSHR miss cycles
system.cpu.dcache.ReadReq_mshr_miss_rate::cpu.data     0.200782                       # mshr miss rate for ReadReq accesses
system.cpu.dcache.ReadReq_mshr_miss_rate::total     0.200782                       # mshr miss rate for ReadReq accesses
system.cpu.dcache.WriteReq_mshr_miss_rate::cpu.data     0.091725                       # mshr miss rate for WriteReq accesses
system.cpu.dcache.WriteReq_mshr_miss_rate::total     0.091725                       # mshr miss rate for WriteReq accesses
system.cpu.dcache.LoadLockedReq_mshr_miss_rate::cpu.data     0.035714                       # mshr miss rate for LoadLockedReq accesses
system.cpu.dcache.LoadLockedReq_mshr_miss_rate::total     0.035714                       # mshr miss rate for LoadLockedReq accesses
system.cpu.dcache.demand_mshr_miss_rate::cpu.data     0.155394                       # mshr miss rate for demand accesses
system.cpu.dcache.demand_mshr_miss_rate::total     0.155394                       # mshr miss rate for demand accesses
system.cpu.dcache.overall_mshr_miss_rate::cpu.data     0.155394                       # mshr miss rate for overall accesses
system.cpu.dcache.overall_mshr_miss_rate::total     0.155394                       # mshr miss rate for overall accesses
system.cpu.dcache.ReadReq_avg_mshr_miss_latency::cpu.data 48299.115044                       # average ReadReq mshr miss latency
system.cpu.dcache.ReadReq_avg_mshr_miss_latency::total 48299.115044                       # average ReadReq mshr miss latency
system.cpu.dcache.WriteReq_avg_mshr_miss_latency::cpu.data 38830.163043                       # average WriteReq mshr miss latency
system.cpu.dcache.WriteReq_avg_mshr_miss_latency::total 38830.163043                       # average WriteReq mshr miss latency
system.cpu.dcache.LoadLockedReq_avg_mshr_miss_latency::cpu.data        18000                       # average LoadLockedReq mshr miss latency
system.cpu.dcache.LoadLockedReq_avg_mshr_miss_latency::total        18000                       # average LoadLockedReq mshr miss latency
system.cpu.dcache.demand_avg_mshr_miss_latency::cpu.data 45972.963952                       # average overall mshr miss latency
system.cpu.dcache.demand_avg_mshr_miss_latency::total 45972.963952                       # average overall mshr miss latency
system.cpu.dcache.overall_avg_mshr_miss_latency::cpu.data 45972.963952                       # average overall mshr miss latency
system.cpu.dcache.overall_avg_mshr_miss_latency::total 45972.963952                       # average overall mshr miss latency
system.cpu.dcache.no_allocate_misses                0                       # Number of misses that were no-allocate
system.cpu.icache.tags.replacements               143                       # number of replacements
system.cpu.icache.tags.tagsinuse           225.611566                       # Cycle average of tags in use
system.cpu.icache.tags.total_refs                8451                       # Total number of references to valid blocks.
system.cpu.icache.tags.sampled_refs               539                       # Sample count of references to valid blocks.
system.cpu.icache.tags.avg_refs             15.679035                       # Average number of references to valid blocks.
system.cpu.icache.tags.warmup_cycle                 0                       # Cycle when the warmup percentage was hit.
system.cpu.icache.tags.occ_blocks::cpu.inst   225.611566                       # Average occupied blocks per requestor
system.cpu.icache.tags.occ_percent::cpu.inst     0.440648                       # Average percentage of cache occupancy
system.cpu.icache.tags.occ_percent::total     0.440648                       # Average percentage of cache occupancy
system.cpu.icache.tags.occ_task_id_blocks::1024          396                       # Occupied blocks per task id
system.cpu.icache.tags.age_task_id_blocks_1024::0          145                       # Occupied blocks per task id
system.cpu.icache.tags.age_task_id_blocks_1024::1          251                       # Occupied blocks per task id
system.cpu.icache.tags.occ_task_id_percent::1024     0.773438                       # Percentage of cache occupancy per task id
system.cpu.icache.tags.tag_accesses             18749                       # Number of tag accesses
system.cpu.icache.tags.data_accesses            18749                       # Number of data accesses
system.cpu.icache.ReadReq_hits::cpu.inst         8451                       # number of ReadReq hits
system.cpu.icache.ReadReq_hits::total            8451                       # number of ReadReq hits
system.cpu.icache.demand_hits::cpu.inst          8451                       # number of demand (read+write) hits
system.cpu.icache.demand_hits::total             8451                       # number of demand (read+write) hits
system.cpu.icache.overall_hits::cpu.inst         8451                       # number of overall hits
system.cpu.icache.overall_hits::total            8451                       # number of overall hits
system.cpu.icache.ReadReq_misses::cpu.inst          654                       # number of ReadReq misses
system.cpu.icache.ReadReq_misses::total           654                       # number of ReadReq misses
system.cpu.icache.demand_misses::cpu.inst          654                       # number of demand (read+write) misses
system.cpu.icache.demand_misses::total            654                       # number of demand (read+write) misses
system.cpu.icache.overall_misses::cpu.inst          654                       # number of overall misses
system.cpu.icache.overall_misses::total           654                       # number of overall misses
system.cpu.icache.ReadReq_miss_latency::cpu.inst     35507738                       # number of ReadReq miss cycles
system.cpu.icache.ReadReq_miss_latency::total     35507738                       # number of ReadReq miss cycles
system.cpu.icache.demand_miss_latency::cpu.inst     35507738                       # number of demand (read+write) miss cycles
system.cpu.icache.demand_miss_latency::total     35507738                       # number of demand (read+write) miss cycles
system.cpu.icache.overall_miss_latency::cpu.inst     35507738                       # number of overall miss cycles
system.cpu.icache.overall_miss_latency::total     35507738                       # number of overall miss cycles
system.cpu.icache.ReadReq_accesses::cpu.inst         9105                       # number of ReadReq accesses(hits+misses)
system.cpu.icache.ReadReq_accesses::total         9105                       # number of ReadReq accesses(hits+misses)
system.cpu.icache.demand_accesses::cpu.inst         9105                       # number of demand (read+write) accesses
system.cpu.icache.demand_accesses::total         9105                       # number of demand (read+write) accesses
system.cpu.icache.overall_accesses::cpu.inst         9105                       # number of overall (read+write) accesses
system.cpu.icache.overall_accesses::total         9105                       # number of overall (read+write) accesses
system.cpu.icache.ReadReq_miss_rate::cpu.inst     0.071829                       # miss rate for ReadReq accesses
system.cpu.icache.ReadReq_miss_rate::total     0.071829                       # miss rate for ReadReq accesses
system.cpu.icache.demand_miss_rate::cpu.inst     0.071829                       # miss rate for demand accesses
system.cpu.icache.demand_miss_rate::total     0.071829                       # miss rate for demand accesses
system.cpu.icache.overall_miss_rate::cpu.inst     0.071829                       # miss rate for overall accesses
system.cpu.icache.overall_miss_rate::total     0.071829                       # miss rate for overall accesses
system.cpu.icache.ReadReq_avg_miss_latency::cpu.inst 54293.177370                       # average ReadReq miss latency
system.cpu.icache.ReadReq_avg_miss_latency::total 54293.177370                       # average ReadReq miss latency
system.cpu.icache.demand_avg_miss_latency::cpu.inst 54293.177370                       # average overall miss latency
system.cpu.icache.demand_avg_miss_latency::total 54293.177370                       # average overall miss latency
system.cpu.icache.overall_avg_miss_latency::cpu.inst 54293.177370                       # average overall miss latency
system.cpu.icache.overall_avg_miss_latency::total 54293.177370                       # average overall miss latency
system.cpu.icache.blocked_cycles::no_mshrs        11147                       # number of cycles access was blocked
system.cpu.icache.blocked_cycles::no_targets           90                       # number of cycles access was blocked
system.cpu.icache.blocked::no_mshrs               155                       # number of cycles access was blocked
system.cpu.icache.blocked::no_targets               1                       # number of cycles access was blocked
system.cpu.icache.avg_blocked_cycles::no_mshrs    71.916129                       # average number of cycles each access was blocked
system.cpu.icache.avg_blocked_cycles::no_targets           90                       # average number of cycles each access was blocked
system.cpu.icache.fast_writes                       0                       # number of fast writes performed
system.cpu.icache.cache_copies                      0                       # number of cache copies performed
system.cpu.icache.ReadReq_mshr_hits::cpu.inst          114                       # number of ReadReq MSHR hits
system.cpu.icache.ReadReq_mshr_hits::total          114                       # number of ReadReq MSHR hits
system.cpu.icache.demand_mshr_hits::cpu.inst          114                       # number of demand (read+write) MSHR hits
system.cpu.icache.demand_mshr_hits::total          114                       # number of demand (read+write) MSHR hits
system.cpu.icache.overall_mshr_hits::cpu.inst          114                       # number of overall MSHR hits
system.cpu.icache.overall_mshr_hits::total          114                       # number of overall MSHR hits
system.cpu.icache.ReadReq_mshr_misses::cpu.inst          540                       # number of ReadReq MSHR misses
system.cpu.icache.ReadReq_mshr_misses::total          540                       # number of ReadReq MSHR misses
system.cpu.icache.demand_mshr_misses::cpu.inst          540                       # number of demand (read+write) MSHR misses
system.cpu.icache.demand_mshr_misses::total          540                       # number of demand (read+write) MSHR misses
system.cpu.icache.overall_mshr_misses::cpu.inst          540                       # number of overall MSHR misses
system.cpu.icache.overall_mshr_misses::total          540                       # number of overall MSHR misses
system.cpu.icache.ReadReq_mshr_miss_latency::cpu.inst     29784996                       # number of ReadReq MSHR miss cycles
system.cpu.icache.ReadReq_mshr_miss_latency::total     29784996                       # number of ReadReq MSHR miss cycles
system.cpu.icache.demand_mshr_miss_latency::cpu.inst     29784996                       # number of demand (read+write) MSHR miss cycles
system.cpu.icache.demand_mshr_miss_latency::total     29784996                       # number of demand (read+write) MSHR miss cycles
system.cpu.icache.overall_mshr_miss_latency::cpu.inst     29784996                       # number of overall MSHR miss cycles
system.cpu.icache.overall_mshr_miss_latency::total     29784996                       # number of overall MSHR miss cycles
system.cpu.icache.ReadReq_mshr_miss_rate::cpu.inst     0.059308                       # mshr miss rate for ReadReq accesses
system.cpu.icache.ReadReq_mshr_miss_rate::total     0.059308                       # mshr miss rate for ReadReq accesses
system.cpu.icache.demand_mshr_miss_rate::cpu.inst     0.059308                       # mshr miss rate for demand accesses
system.cpu.icache.demand_mshr_miss_rate::total     0.059308                       # mshr miss rate for demand accesses
system.cpu.icache.overall_mshr_miss_rate::cpu.inst     0.059308                       # mshr miss rate for overall accesses
system.cpu.icache.overall_mshr_miss_rate::total     0.059308                       # mshr miss rate for overall accesses
system.cpu.icache.ReadReq_avg_mshr_miss_latency::cpu.inst 55157.400000                       # average ReadReq mshr miss latency
system.cpu.icache.ReadReq_avg_mshr_miss_latency::total 55157.400000                       # average ReadReq mshr miss latency
system.cpu.icache.demand_avg_mshr_miss_latency::cpu.inst 55157.400000                       # average overall mshr miss latency
system.cpu.icache.demand_avg_mshr_miss_latency::total 55157.400000                       # average overall mshr miss latency
system.cpu.icache.overall_avg_mshr_miss_latency::cpu.inst 55157.400000                       # average overall mshr miss latency
system.cpu.icache.overall_avg_mshr_miss_latency::total 55157.400000                       # average overall mshr miss latency
system.cpu.icache.no_allocate_misses                0                       # Number of misses that were no-allocate
system.membus.trans_dist::ReadReq                1106                       # Transaction distribution
system.membus.trans_dist::ReadResp               1104                       # Transaction distribution
system.membus.trans_dist::Writeback               258                       # Transaction distribution
system.membus.trans_dist::ReadExReq               184                       # Transaction distribution
system.membus.trans_dist::ReadExResp              184                       # Transaction distribution
system.membus.pkt_count_system.cpu.icache.mem_side::system.mem_ctrls.port         1079                       # Packet count per connected master and slave (bytes)
system.membus.pkt_count_system.cpu.dcache.mem_side::system.mem_ctrls.port         1757                       # Packet count per connected master and slave (bytes)
system.membus.pkt_count::total                   2836                       # Packet count per connected master and slave (bytes)
system.membus.pkt_size_system.cpu.icache.mem_side::system.mem_ctrls.port        34496                       # Cumulative packet size per connected master and slave (bytes)
system.membus.pkt_size_system.cpu.dcache.mem_side::system.mem_ctrls.port        64448                       # Cumulative packet size per connected master and slave (bytes)
system.membus.pkt_size::total                   98944                       # Cumulative packet size per connected master and slave (bytes)
system.membus.snoops                                0                       # Total snoops (count)
system.membus.snoop_fanout::samples              1548                       # Request fanout histogram
system.membus.snoop_fanout::mean                    1                       # Request fanout histogram
system.membus.snoop_fanout::stdev                   0                       # Request fanout histogram
system.membus.snoop_fanout::underflows              0      0.00%      0.00% # Request fanout histogram
system.membus.snoop_fanout::0                       0      0.00%      0.00% # Request fanout histogram
system.membus.snoop_fanout::1                    1548    100.00%    100.00% # Request fanout histogram
system.membus.snoop_fanout::2                       0      0.00%    100.00% # Request fanout histogram
system.membus.snoop_fanout::overflows               0      0.00%    100.00% # Request fanout histogram
system.membus.snoop_fanout::min_value               1                       # Request fanout histogram
system.membus.snoop_fanout::max_value               1                       # Request fanout histogram
system.membus.snoop_fanout::total                1548                       # Request fanout histogram
system.membus.reqLayer0.occupancy             2888000                       # Layer occupancy (ticks)
system.membus.reqLayer0.utilization               7.8                       # Layer utilization (%)
system.membus.respLayer1.occupancy            2873998                       # Layer occupancy (ticks)
system.membus.respLayer1.utilization              7.8                       # Layer utilization (%)
system.membus.respLayer2.occupancy            3916750                       # Layer occupancy (ticks)
system.membus.respLayer2.utilization             10.6                       # Layer utilization (%)

---------- End Simulation Statistics   ----------
