
---------- Begin Simulation Statistics ----------
sim_seconds                                  0.000036                       # Number of seconds simulated
sim_ticks                                    35597000                       # Number of ticks simulated
final_tick                                   35597000                       # Number of ticks from beginning of simulation (restored from checkpoints and never reset)
sim_freq                                 1000000000000                       # Frequency of simulated ticks
host_inst_rate                                  75360                       # Simulator instruction rate (inst/s)
host_op_rate                                    88169                       # Simulator op (including micro ops) rate (op/s)
host_tick_rate                              248875175                       # Simulator tick rate (ticks/s)
host_mem_usage                                 642832                       # Number of bytes of host memory used
host_seconds                                     0.14                       # Real time elapsed on the host
sim_insts                                       10777                       # Number of instructions simulated
sim_ops                                         12610                       # Number of ops (including micro ops) simulated
system.voltage_domain.voltage                       1                       # Voltage in Volts
system.clk_domain.clock                          1000                       # Clock period in ticks
system.mem_ctrls.bytes_read::cpu.inst           34048                       # Number of bytes read from this memory
system.mem_ctrls.bytes_read::cpu.data           38208                       # Number of bytes read from this memory
system.mem_ctrls.bytes_read::total              72256                       # Number of bytes read from this memory
system.mem_ctrls.bytes_inst_read::cpu.inst        34048                       # Number of instructions bytes read from this memory
system.mem_ctrls.bytes_inst_read::total         34048                       # Number of instructions bytes read from this memory
system.mem_ctrls.bytes_written::writebacks        13376                       # Number of bytes written to this memory
system.mem_ctrls.bytes_written::total           13376                       # Number of bytes written to this memory
system.mem_ctrls.num_reads::cpu.inst              532                       # Number of read requests responded to by this memory
system.mem_ctrls.num_reads::cpu.data              597                       # Number of read requests responded to by this memory
system.mem_ctrls.num_reads::total                1129                       # Number of read requests responded to by this memory
system.mem_ctrls.num_writes::writebacks           209                       # Number of write requests responded to by this memory
system.mem_ctrls.num_writes::total                209                       # Number of write requests responded to by this memory
system.mem_ctrls.bw_read::cpu.inst          956485097                       # Total read bandwidth from this memory (bytes/s)
system.mem_ctrls.bw_read::cpu.data         1073348878                       # Total read bandwidth from this memory (bytes/s)
system.mem_ctrls.bw_read::total            2029833975                       # Total read bandwidth from this memory (bytes/s)
system.mem_ctrls.bw_inst_read::cpu.inst     956485097                       # Instruction read bandwidth from this memory (bytes/s)
system.mem_ctrls.bw_inst_read::total        956485097                       # Instruction read bandwidth from this memory (bytes/s)
system.mem_ctrls.bw_write::writebacks       375762002                       # Write bandwidth from this memory (bytes/s)
system.mem_ctrls.bw_write::total            375762002                       # Write bandwidth from this memory (bytes/s)
system.mem_ctrls.bw_total::writebacks       375762002                       # Total bandwidth to/from this memory (bytes/s)
system.mem_ctrls.bw_total::cpu.inst         956485097                       # Total bandwidth to/from this memory (bytes/s)
system.mem_ctrls.bw_total::cpu.data        1073348878                       # Total bandwidth to/from this memory (bytes/s)
system.mem_ctrls.bw_total::total           2405595977                       # Total bandwidth to/from this memory (bytes/s)
system.mem_ctrls.readReqs                        1130                       # Number of read requests accepted
system.mem_ctrls.writeReqs                        209                       # Number of write requests accepted
system.mem_ctrls.readBursts                      1130                       # Number of DRAM read bursts, including those serviced by the write queue
system.mem_ctrls.writeBursts                      209                       # Number of DRAM write bursts, including those merged in the write queue
system.mem_ctrls.bytesReadDRAM                  62080                       # Total number of bytes read from DRAM
system.mem_ctrls.bytesReadWrQ                   10176                       # Total number of bytes read from write queue
system.mem_ctrls.bytesWritten                    7040                       # Total number of bytes written to DRAM
system.mem_ctrls.bytesReadSys                   72320                       # Total read bytes from the system interface side
system.mem_ctrls.bytesWrittenSys                13376                       # Total written bytes from the system interface side
system.mem_ctrls.servicedByWrQ                    159                       # Number of DRAM read bursts serviced by the write queue
system.mem_ctrls.mergedWrBursts                    80                       # Number of DRAM write bursts merged with an existing one
system.mem_ctrls.neitherReadNorWriteReqs            0                       # Number of requests that are neither read nor write
system.mem_ctrls.perBankRdBursts::0                85                       # Per bank write bursts
system.mem_ctrls.perBankRdBursts::1                 4                       # Per bank write bursts
system.mem_ctrls.perBankRdBursts::2                31                       # Per bank write bursts
system.mem_ctrls.perBankRdBursts::3                92                       # Per bank write bursts
system.mem_ctrls.perBankRdBursts::4               158                       # Per bank write bursts
system.mem_ctrls.perBankRdBursts::5                76                       # Per bank write bursts
system.mem_ctrls.perBankRdBursts::6               121                       # Per bank write bursts
system.mem_ctrls.perBankRdBursts::7                69                       # Per bank write bursts
system.mem_ctrls.perBankRdBursts::8                39                       # Per bank write bursts
system.mem_ctrls.perBankRdBursts::9                95                       # Per bank write bursts
system.mem_ctrls.perBankRdBursts::10               29                       # Per bank write bursts
system.mem_ctrls.perBankRdBursts::11               19                       # Per bank write bursts
system.mem_ctrls.perBankRdBursts::12               35                       # Per bank write bursts
system.mem_ctrls.perBankRdBursts::13               32                       # Per bank write bursts
system.mem_ctrls.perBankRdBursts::14               75                       # Per bank write bursts
system.mem_ctrls.perBankRdBursts::15               10                       # Per bank write bursts
system.mem_ctrls.perBankWrBursts::0                 0                       # Per bank write bursts
system.mem_ctrls.perBankWrBursts::1                 0                       # Per bank write bursts
system.mem_ctrls.perBankWrBursts::2                 0                       # Per bank write bursts
system.mem_ctrls.perBankWrBursts::3                 5                       # Per bank write bursts
system.mem_ctrls.perBankWrBursts::4                56                       # Per bank write bursts
system.mem_ctrls.perBankWrBursts::5                15                       # Per bank write bursts
system.mem_ctrls.perBankWrBursts::6                26                       # Per bank write bursts
system.mem_ctrls.perBankWrBursts::7                 8                       # Per bank write bursts
system.mem_ctrls.perBankWrBursts::8                 0                       # Per bank write bursts
system.mem_ctrls.perBankWrBursts::9                 0                       # Per bank write bursts
system.mem_ctrls.perBankWrBursts::10                0                       # Per bank write bursts
system.mem_ctrls.perBankWrBursts::11                0                       # Per bank write bursts
system.mem_ctrls.perBankWrBursts::12                0                       # Per bank write bursts
system.mem_ctrls.perBankWrBursts::13                0                       # Per bank write bursts
system.mem_ctrls.perBankWrBursts::14                0                       # Per bank write bursts
system.mem_ctrls.perBankWrBursts::15                0                       # Per bank write bursts
system.mem_ctrls.numRdRetry                         0                       # Number of times read queue was full causing retry
system.mem_ctrls.numWrRetry                         0                       # Number of times write queue was full causing retry
system.mem_ctrls.totGap                      35570500                       # Total gap between requests
system.mem_ctrls.readPktSize::0                     0                       # Read request sizes (log2)
system.mem_ctrls.readPktSize::1                     0                       # Read request sizes (log2)
system.mem_ctrls.readPktSize::2                     0                       # Read request sizes (log2)
system.mem_ctrls.readPktSize::3                     0                       # Read request sizes (log2)
system.mem_ctrls.readPktSize::4                     0                       # Read request sizes (log2)
system.mem_ctrls.readPktSize::5                     0                       # Read request sizes (log2)
system.mem_ctrls.readPktSize::6                  1130                       # Read request sizes (log2)
system.mem_ctrls.writePktSize::0                    0                       # Write request sizes (log2)
system.mem_ctrls.writePktSize::1                    0                       # Write request sizes (log2)
system.mem_ctrls.writePktSize::2                    0                       # Write request sizes (log2)
system.mem_ctrls.writePktSize::3                    0                       # Write request sizes (log2)
system.mem_ctrls.writePktSize::4                    0                       # Write request sizes (log2)
system.mem_ctrls.writePktSize::5                    0                       # Write request sizes (log2)
system.mem_ctrls.writePktSize::6                  209                       # Write request sizes (log2)
system.mem_ctrls.rdQLenPdf::0                     517                       # What read queue length does an incoming req see
system.mem_ctrls.rdQLenPdf::1                     310                       # What read queue length does an incoming req see
system.mem_ctrls.rdQLenPdf::2                     106                       # What read queue length does an incoming req see
system.mem_ctrls.rdQLenPdf::3                      30                       # What read queue length does an incoming req see
system.mem_ctrls.rdQLenPdf::4                       6                       # What read queue length does an incoming req see
system.mem_ctrls.rdQLenPdf::5                       2                       # What read queue length does an incoming req see
system.mem_ctrls.rdQLenPdf::6                       0                       # What read queue length does an incoming req see
system.mem_ctrls.rdQLenPdf::7                       0                       # What read queue length does an incoming req see
system.mem_ctrls.rdQLenPdf::8                       0                       # What read queue length does an incoming req see
system.mem_ctrls.rdQLenPdf::9                       0                       # What read queue length does an incoming req see
system.mem_ctrls.rdQLenPdf::10                      0                       # What read queue length does an incoming req see
system.mem_ctrls.rdQLenPdf::11                      0                       # What read queue length does an incoming req see
system.mem_ctrls.rdQLenPdf::12                      0                       # What read queue length does an incoming req see
system.mem_ctrls.rdQLenPdf::13                      0                       # What read queue length does an incoming req see
system.mem_ctrls.rdQLenPdf::14                      0                       # What read queue length does an incoming req see
system.mem_ctrls.rdQLenPdf::15                      0                       # What read queue length does an incoming req see
system.mem_ctrls.rdQLenPdf::16                      0                       # What read queue length does an incoming req see
system.mem_ctrls.rdQLenPdf::17                      0                       # What read queue length does an incoming req see
system.mem_ctrls.rdQLenPdf::18                      0                       # What read queue length does an incoming req see
system.mem_ctrls.rdQLenPdf::19                      0                       # What read queue length does an incoming req see
system.mem_ctrls.rdQLenPdf::20                      0                       # What read queue length does an incoming req see
system.mem_ctrls.rdQLenPdf::21                      0                       # What read queue length does an incoming req see
system.mem_ctrls.rdQLenPdf::22                      0                       # What read queue length does an incoming req see
system.mem_ctrls.rdQLenPdf::23                      0                       # What read queue length does an incoming req see
system.mem_ctrls.rdQLenPdf::24                      0                       # What read queue length does an incoming req see
system.mem_ctrls.rdQLenPdf::25                      0                       # What read queue length does an incoming req see
system.mem_ctrls.rdQLenPdf::26                      0                       # What read queue length does an incoming req see
system.mem_ctrls.rdQLenPdf::27                      0                       # What read queue length does an incoming req see
system.mem_ctrls.rdQLenPdf::28                      0                       # What read queue length does an incoming req see
system.mem_ctrls.rdQLenPdf::29                      0                       # What read queue length does an incoming req see
system.mem_ctrls.rdQLenPdf::30                      0                       # What read queue length does an incoming req see
system.mem_ctrls.rdQLenPdf::31                      0                       # What read queue length does an incoming req see
system.mem_ctrls.wrQLenPdf::0                       1                       # What write queue length does an incoming req see
system.mem_ctrls.wrQLenPdf::1                       1                       # What write queue length does an incoming req see
system.mem_ctrls.wrQLenPdf::2                       1                       # What write queue length does an incoming req see
system.mem_ctrls.wrQLenPdf::3                       1                       # What write queue length does an incoming req see
system.mem_ctrls.wrQLenPdf::4                       1                       # What write queue length does an incoming req see
system.mem_ctrls.wrQLenPdf::5                       1                       # What write queue length does an incoming req see
system.mem_ctrls.wrQLenPdf::6                       1                       # What write queue length does an incoming req see
system.mem_ctrls.wrQLenPdf::7                       1                       # What write queue length does an incoming req see
system.mem_ctrls.wrQLenPdf::8                       1                       # What write queue length does an incoming req see
system.mem_ctrls.wrQLenPdf::9                       1                       # What write queue length does an incoming req see
system.mem_ctrls.wrQLenPdf::10                      1                       # What write queue length does an incoming req see
system.mem_ctrls.wrQLenPdf::11                      1                       # What write queue length does an incoming req see
system.mem_ctrls.wrQLenPdf::12                      1                       # What write queue length does an incoming req see
system.mem_ctrls.wrQLenPdf::13                      1                       # What write queue length does an incoming req see
system.mem_ctrls.wrQLenPdf::14                      1                       # What write queue length does an incoming req see
system.mem_ctrls.wrQLenPdf::15                      1                       # What write queue length does an incoming req see
system.mem_ctrls.wrQLenPdf::16                      1                       # What write queue length does an incoming req see
system.mem_ctrls.wrQLenPdf::17                      6                       # What write queue length does an incoming req see
system.mem_ctrls.wrQLenPdf::18                      7                       # What write queue length does an incoming req see
system.mem_ctrls.wrQLenPdf::19                      8                       # What write queue length does an incoming req see
system.mem_ctrls.wrQLenPdf::20                      7                       # What write queue length does an incoming req see
system.mem_ctrls.wrQLenPdf::21                      7                       # What write queue length does an incoming req see
system.mem_ctrls.wrQLenPdf::22                      7                       # What write queue length does an incoming req see
system.mem_ctrls.wrQLenPdf::23                      7                       # What write queue length does an incoming req see
system.mem_ctrls.wrQLenPdf::24                      7                       # What write queue length does an incoming req see
system.mem_ctrls.wrQLenPdf::25                      7                       # What write queue length does an incoming req see
system.mem_ctrls.wrQLenPdf::26                      7                       # What write queue length does an incoming req see
system.mem_ctrls.wrQLenPdf::27                      7                       # What write queue length does an incoming req see
system.mem_ctrls.wrQLenPdf::28                      7                       # What write queue length does an incoming req see
system.mem_ctrls.wrQLenPdf::29                      7                       # What write queue length does an incoming req see
system.mem_ctrls.wrQLenPdf::30                      7                       # What write queue length does an incoming req see
system.mem_ctrls.wrQLenPdf::31                      7                       # What write queue length does an incoming req see
system.mem_ctrls.wrQLenPdf::32                      7                       # What write queue length does an incoming req see
system.mem_ctrls.wrQLenPdf::33                      0                       # What write queue length does an incoming req see
system.mem_ctrls.wrQLenPdf::34                      0                       # What write queue length does an incoming req see
system.mem_ctrls.wrQLenPdf::35                      0                       # What write queue length does an incoming req see
system.mem_ctrls.wrQLenPdf::36                      0                       # What write queue length does an incoming req see
system.mem_ctrls.wrQLenPdf::37                      0                       # What write queue length does an incoming req see
system.mem_ctrls.wrQLenPdf::38                      0                       # What write queue length does an incoming req see
system.mem_ctrls.wrQLenPdf::39                      0                       # What write queue length does an incoming req see
system.mem_ctrls.wrQLenPdf::40                      0                       # What write queue length does an incoming req see
system.mem_ctrls.wrQLenPdf::41                      0                       # What write queue length does an incoming req see
system.mem_ctrls.wrQLenPdf::42                      0                       # What write queue length does an incoming req see
system.mem_ctrls.wrQLenPdf::43                      0                       # What write queue length does an incoming req see
system.mem_ctrls.wrQLenPdf::44                      0                       # What write queue length does an incoming req see
system.mem_ctrls.wrQLenPdf::45                      0                       # What write queue length does an incoming req see
system.mem_ctrls.wrQLenPdf::46                      0                       # What write queue length does an incoming req see
system.mem_ctrls.wrQLenPdf::47                      0                       # What write queue length does an incoming req see
system.mem_ctrls.wrQLenPdf::48                      0                       # What write queue length does an incoming req see
system.mem_ctrls.wrQLenPdf::49                      0                       # What write queue length does an incoming req see
system.mem_ctrls.wrQLenPdf::50                      0                       # What write queue length does an incoming req see
system.mem_ctrls.wrQLenPdf::51                      0                       # What write queue length does an incoming req see
system.mem_ctrls.wrQLenPdf::52                      0                       # What write queue length does an incoming req see
system.mem_ctrls.wrQLenPdf::53                      0                       # What write queue length does an incoming req see
system.mem_ctrls.wrQLenPdf::54                      0                       # What write queue length does an incoming req see
system.mem_ctrls.wrQLenPdf::55                      0                       # What write queue length does an incoming req see
system.mem_ctrls.wrQLenPdf::56                      0                       # What write queue length does an incoming req see
system.mem_ctrls.wrQLenPdf::57                      0                       # What write queue length does an incoming req see
system.mem_ctrls.wrQLenPdf::58                      0                       # What write queue length does an incoming req see
system.mem_ctrls.wrQLenPdf::59                      0                       # What write queue length does an incoming req see
system.mem_ctrls.wrQLenPdf::60                      0                       # What write queue length does an incoming req see
system.mem_ctrls.wrQLenPdf::61                      0                       # What write queue length does an incoming req see
system.mem_ctrls.wrQLenPdf::62                      0                       # What write queue length does an incoming req see
system.mem_ctrls.wrQLenPdf::63                      0                       # What write queue length does an incoming req see
system.mem_ctrls.bytesPerActivate::samples          190                       # Bytes accessed per row activation
system.mem_ctrls.bytesPerActivate::mean    349.305263                       # Bytes accessed per row activation
system.mem_ctrls.bytesPerActivate::gmean   214.951494                       # Bytes accessed per row activation
system.mem_ctrls.bytesPerActivate::stdev   336.510794                       # Bytes accessed per row activation
system.mem_ctrls.bytesPerActivate::0-127           57     30.00%     30.00% # Bytes accessed per row activation
system.mem_ctrls.bytesPerActivate::128-255           44     23.16%     53.16% # Bytes accessed per row activation
system.mem_ctrls.bytesPerActivate::256-383           26     13.68%     66.84% # Bytes accessed per row activation
system.mem_ctrls.bytesPerActivate::384-511           14      7.37%     74.21% # Bytes accessed per row activation
system.mem_ctrls.bytesPerActivate::512-639            7      3.68%     77.89% # Bytes accessed per row activation
system.mem_ctrls.bytesPerActivate::640-767            6      3.16%     81.05% # Bytes accessed per row activation
system.mem_ctrls.bytesPerActivate::768-895            7      3.68%     84.74% # Bytes accessed per row activation
system.mem_ctrls.bytesPerActivate::896-1023            4      2.11%     86.84% # Bytes accessed per row activation
system.mem_ctrls.bytesPerActivate::1024-1151           25     13.16%    100.00% # Bytes accessed per row activation
system.mem_ctrls.bytesPerActivate::total          190                       # Bytes accessed per row activation
system.mem_ctrls.rdPerTurnAround::samples            7                       # Reads before turning the bus around for writes
system.mem_ctrls.rdPerTurnAround::mean     138.571429                       # Reads before turning the bus around for writes
system.mem_ctrls.rdPerTurnAround::gmean    130.238712                       # Reads before turning the bus around for writes
system.mem_ctrls.rdPerTurnAround::stdev     52.652500                       # Reads before turning the bus around for writes
system.mem_ctrls.rdPerTurnAround::72-79             1     14.29%     14.29% # Reads before turning the bus around for writes
system.mem_ctrls.rdPerTurnAround::88-95             1     14.29%     28.57% # Reads before turning the bus around for writes
system.mem_ctrls.rdPerTurnAround::112-119            1     14.29%     42.86% # Reads before turning the bus around for writes
system.mem_ctrls.rdPerTurnAround::128-135            1     14.29%     57.14% # Reads before turning the bus around for writes
system.mem_ctrls.rdPerTurnAround::136-143            1     14.29%     71.43% # Reads before turning the bus around for writes
system.mem_ctrls.rdPerTurnAround::192-199            1     14.29%     85.71% # Reads before turning the bus around for writes
system.mem_ctrls.rdPerTurnAround::216-223            1     14.29%    100.00% # Reads before turning the bus around for writes
system.mem_ctrls.rdPerTurnAround::total             7                       # Reads before turning the bus around for writes
system.mem_ctrls.wrPerTurnAround::samples            6                       # Writes before turning the bus around for reads
system.mem_ctrls.wrPerTurnAround::mean             16                       # Writes before turning the bus around for reads
system.mem_ctrls.wrPerTurnAround::gmean     16.000000                       # Writes before turning the bus around for reads
system.mem_ctrls.wrPerTurnAround::16                6    100.00%    100.00% # Writes before turning the bus around for reads
system.mem_ctrls.wrPerTurnAround::total             6                       # Writes before turning the bus around for reads
system.mem_ctrls.totQLat                     10626750                       # Total ticks spent queuing
system.mem_ctrls.totMemAccLat                28814250                       # Total ticks spent from burst creation until serviced by the DRAM
system.mem_ctrls.totBusLat                    4850000                       # Total ticks spent in databus transfers
system.mem_ctrls.avgQLat                     10944.13                       # Average queueing delay per DRAM burst
system.mem_ctrls.avgBusLat                    4994.85                       # Average bus latency per DRAM burst
system.mem_ctrls.avgMemAccLat                29674.82                       # Average memory access latency per DRAM burst
system.mem_ctrls.avgRdBW                      1743.97                       # Average DRAM read bandwidth in MiByte/s
system.mem_ctrls.avgWrBW                       197.77                       # Average achieved write bandwidth in MiByte/s
system.mem_ctrls.avgRdBWSys                   2031.63                       # Average system read bandwidth in MiByte/s
system.mem_ctrls.avgWrBWSys                    375.76                       # Average system write bandwidth in MiByte/s
system.mem_ctrls.peakBW                      12800.00                       # Theoretical peak bandwidth in MiByte/s
system.mem_ctrls.busUtil                        15.17                       # Data bus utilization in percentage
system.mem_ctrls.busUtilRead                    13.62                       # Data bus utilization in percentage for reads
system.mem_ctrls.busUtilWrite                    1.55                       # Data bus utilization in percentage for writes
system.mem_ctrls.avgRdQLen                       1.82                       # Average read queue length when enqueuing
system.mem_ctrls.avgWrQLen                      24.61                       # Average write queue length when enqueuing
system.mem_ctrls.readRowHits                      773                       # Number of row buffer hits during reads
system.mem_ctrls.writeRowHits                     106                       # Number of row buffer hits during writes
system.mem_ctrls.readRowHitRate                 79.61                       # Row buffer hit rate for reads
system.mem_ctrls.writeRowHitRate                82.17                       # Row buffer hit rate for writes
system.mem_ctrls.avgGap                      26564.97                       # Average gap between requests
system.mem_ctrls.pageHitRate                    79.91                       # Row buffer hit rate, read and write combined
system.mem_ctrls_0.actEnergy                   861840                       # Energy for activate commands per rank (pJ)
system.mem_ctrls_0.preEnergy                   470250                       # Energy for precharge commands per rank (pJ)
system.mem_ctrls_0.readEnergy                 4134000                       # Energy for read commands per rank (pJ)
system.mem_ctrls_0.writeEnergy                 622080                       # Energy for write commands per rank (pJ)
system.mem_ctrls_0.refreshEnergy              2034240                       # Energy for refresh commands per rank (pJ)
system.mem_ctrls_0.actBackEnergy             21120210                       # Energy for active background per rank (pJ)
system.mem_ctrls_0.preBackEnergy               316500                       # Energy for precharge background per rank (pJ)
system.mem_ctrls_0.totalEnergy               29559120                       # Total energy per rank (pJ)
system.mem_ctrls_0.averagePower            941.223372                       # Core power per rank (mW)
system.mem_ctrls_0.memoryStateTime::IDLE       553000                       # Time in different power states
system.mem_ctrls_0.memoryStateTime::REF       1040000                       # Time in different power states
system.mem_ctrls_0.memoryStateTime::PRE_PDN            0                       # Time in different power states
system.mem_ctrls_0.memoryStateTime::ACT      29948500                       # Time in different power states
system.mem_ctrls_0.memoryStateTime::ACT_PDN            0                       # Time in different power states
system.mem_ctrls_1.actEnergy                   446040                       # Energy for activate commands per rank (pJ)
system.mem_ctrls_1.preEnergy                   243375                       # Energy for precharge commands per rank (pJ)
system.mem_ctrls_1.readEnergy                 2511600                       # Energy for read commands per rank (pJ)
system.mem_ctrls_1.writeEnergy                      0                       # Energy for write commands per rank (pJ)
system.mem_ctrls_1.refreshEnergy              2034240                       # Energy for refresh commands per rank (pJ)
system.mem_ctrls_1.actBackEnergy             21160395                       # Energy for active background per rank (pJ)
system.mem_ctrls_1.preBackEnergy               281250                       # Energy for precharge background per rank (pJ)
system.mem_ctrls_1.totalEnergy               26676900                       # Total energy per rank (pJ)
system.mem_ctrls_1.averagePower            849.447540                       # Core power per rank (mW)
system.mem_ctrls_1.memoryStateTime::IDLE       290750                       # Time in different power states
system.mem_ctrls_1.memoryStateTime::REF       1040000                       # Time in different power states
system.mem_ctrls_1.memoryStateTime::PRE_PDN            0                       # Time in different power states
system.mem_ctrls_1.memoryStateTime::ACT      30088000                       # Time in different power states
system.mem_ctrls_1.memoryStateTime::ACT_PDN            0                       # Time in different power states
system.cpu.branchPred.lookups                    5347                       # Number of BP lookups
system.cpu.branchPred.condPredicted              3540                       # Number of conditional branches predicted
system.cpu.branchPred.condIncorrect               997                       # Number of conditional branches incorrect
system.cpu.branchPred.BTBLookups                 1538                       # Number of BTB lookups
system.cpu.branchPred.BTBHits                     917                       # Number of BTB hits
system.cpu.branchPred.BTBCorrect                    0                       # Number of correct BTB predictions (this stat may not work properly.
system.cpu.branchPred.BTBHitPct             59.622887                       # BTB Hit Percentage
system.cpu.branchPred.usedRAS                     534                       # Number of times the RAS was used to get a target.
system.cpu.branchPred.RASInCorrect                 45                       # Number of incorrect RAS predictions.
system.cpu_voltage_domain.voltage                   1                       # Voltage in Volts
system.cpu_clk_domain.clock                       500                       # Clock period in ticks
system.cpu.dstage2_mmu.stage2_tlb.walker.walks            0                       # Table walker walks requested
system.cpu.dstage2_mmu.stage2_tlb.walker.walkRequestOrigin_Requested::Data            0                       # Table walker requests started/completed, data/inst
system.cpu.dstage2_mmu.stage2_tlb.walker.walkRequestOrigin_Requested::Inst            0                       # Table walker requests started/completed, data/inst
system.cpu.dstage2_mmu.stage2_tlb.walker.walkRequestOrigin_Requested::total            0                       # Table walker requests started/completed, data/inst
system.cpu.dstage2_mmu.stage2_tlb.walker.walkRequestOrigin_Completed::Data            0                       # Table walker requests started/completed, data/inst
system.cpu.dstage2_mmu.stage2_tlb.walker.walkRequestOrigin_Completed::Inst            0                       # Table walker requests started/completed, data/inst
system.cpu.dstage2_mmu.stage2_tlb.walker.walkRequestOrigin_Completed::total            0                       # Table walker requests started/completed, data/inst
system.cpu.dstage2_mmu.stage2_tlb.walker.walkRequestOrigin::total            0                       # Table walker requests started/completed, data/inst
system.cpu.dstage2_mmu.stage2_tlb.inst_hits            0                       # ITB inst hits
system.cpu.dstage2_mmu.stage2_tlb.inst_misses            0                       # ITB inst misses
system.cpu.dstage2_mmu.stage2_tlb.read_hits            0                       # DTB read hits
system.cpu.dstage2_mmu.stage2_tlb.read_misses            0                       # DTB read misses
system.cpu.dstage2_mmu.stage2_tlb.write_hits            0                       # DTB write hits
system.cpu.dstage2_mmu.stage2_tlb.write_misses            0                       # DTB write misses
system.cpu.dstage2_mmu.stage2_tlb.flush_tlb            0                       # Number of times complete TLB was flushed
system.cpu.dstage2_mmu.stage2_tlb.flush_tlb_mva            0                       # Number of times TLB was flushed by MVA
system.cpu.dstage2_mmu.stage2_tlb.flush_tlb_mva_asid            0                       # Number of times TLB was flushed by MVA & ASID
system.cpu.dstage2_mmu.stage2_tlb.flush_tlb_asid            0                       # Number of times TLB was flushed by ASID
system.cpu.dstage2_mmu.stage2_tlb.flush_entries            0                       # Number of entries that have been flushed from TLB
system.cpu.dstage2_mmu.stage2_tlb.align_faults            0                       # Number of TLB faults due to alignment restrictions
system.cpu.dstage2_mmu.stage2_tlb.prefetch_faults            0                       # Number of TLB faults due to prefetch
system.cpu.dstage2_mmu.stage2_tlb.domain_faults            0                       # Number of TLB faults due to domain restrictions
system.cpu.dstage2_mmu.stage2_tlb.perms_faults            0                       # Number of TLB faults due to permissions restrictions
system.cpu.dstage2_mmu.stage2_tlb.read_accesses            0                       # DTB read accesses
system.cpu.dstage2_mmu.stage2_tlb.write_accesses            0                       # DTB write accesses
system.cpu.dstage2_mmu.stage2_tlb.inst_accesses            0                       # ITB inst accesses
system.cpu.dstage2_mmu.stage2_tlb.hits              0                       # DTB hits
system.cpu.dstage2_mmu.stage2_tlb.misses            0                       # DTB misses
system.cpu.dstage2_mmu.stage2_tlb.accesses            0                       # DTB accesses
system.cpu.dtb.walker.walks                         0                       # Table walker walks requested
system.cpu.dtb.walker.walkRequestOrigin_Requested::Data            0                       # Table walker requests started/completed, data/inst
system.cpu.dtb.walker.walkRequestOrigin_Requested::Inst            0                       # Table walker requests started/completed, data/inst
system.cpu.dtb.walker.walkRequestOrigin_Requested::total            0                       # Table walker requests started/completed, data/inst
system.cpu.dtb.walker.walkRequestOrigin_Completed::Data            0                       # Table walker requests started/completed, data/inst
system.cpu.dtb.walker.walkRequestOrigin_Completed::Inst            0                       # Table walker requests started/completed, data/inst
system.cpu.dtb.walker.walkRequestOrigin_Completed::total            0                       # Table walker requests started/completed, data/inst
system.cpu.dtb.walker.walkRequestOrigin::total            0                       # Table walker requests started/completed, data/inst
system.cpu.dtb.inst_hits                            0                       # ITB inst hits
system.cpu.dtb.inst_misses                          0                       # ITB inst misses
system.cpu.dtb.read_hits                            0                       # DTB read hits
system.cpu.dtb.read_misses                          0                       # DTB read misses
system.cpu.dtb.write_hits                           0                       # DTB write hits
system.cpu.dtb.write_misses                         0                       # DTB write misses
system.cpu.dtb.flush_tlb                            0                       # Number of times complete TLB was flushed
system.cpu.dtb.flush_tlb_mva                        0                       # Number of times TLB was flushed by MVA
system.cpu.dtb.flush_tlb_mva_asid                   0                       # Number of times TLB was flushed by MVA & ASID
system.cpu.dtb.flush_tlb_asid                       0                       # Number of times TLB was flushed by ASID
system.cpu.dtb.flush_entries                        0                       # Number of entries that have been flushed from TLB
system.cpu.dtb.align_faults                         0                       # Number of TLB faults due to alignment restrictions
system.cpu.dtb.prefetch_faults                      0                       # Number of TLB faults due to prefetch
system.cpu.dtb.domain_faults                        0                       # Number of TLB faults due to domain restrictions
system.cpu.dtb.perms_faults                         0                       # Number of TLB faults due to permissions restrictions
system.cpu.dtb.read_accesses                        0                       # DTB read accesses
system.cpu.dtb.write_accesses                       0                       # DTB write accesses
system.cpu.dtb.inst_accesses                        0                       # ITB inst accesses
system.cpu.dtb.hits                                 0                       # DTB hits
system.cpu.dtb.misses                               0                       # DTB misses
system.cpu.dtb.accesses                             0                       # DTB accesses
system.cpu.istage2_mmu.stage2_tlb.walker.walks            0                       # Table walker walks requested
system.cpu.istage2_mmu.stage2_tlb.walker.walkRequestOrigin_Requested::Data            0                       # Table walker requests started/completed, data/inst
system.cpu.istage2_mmu.stage2_tlb.walker.walkRequestOrigin_Requested::Inst            0                       # Table walker requests started/completed, data/inst
system.cpu.istage2_mmu.stage2_tlb.walker.walkRequestOrigin_Requested::total            0                       # Table walker requests started/completed, data/inst
system.cpu.istage2_mmu.stage2_tlb.walker.walkRequestOrigin_Completed::Data            0                       # Table walker requests started/completed, data/inst
system.cpu.istage2_mmu.stage2_tlb.walker.walkRequestOrigin_Completed::Inst            0                       # Table walker requests started/completed, data/inst
system.cpu.istage2_mmu.stage2_tlb.walker.walkRequestOrigin_Completed::total            0                       # Table walker requests started/completed, data/inst
system.cpu.istage2_mmu.stage2_tlb.walker.walkRequestOrigin::total            0                       # Table walker requests started/completed, data/inst
system.cpu.istage2_mmu.stage2_tlb.inst_hits            0                       # ITB inst hits
system.cpu.istage2_mmu.stage2_tlb.inst_misses            0                       # ITB inst misses
system.cpu.istage2_mmu.stage2_tlb.read_hits            0                       # DTB read hits
system.cpu.istage2_mmu.stage2_tlb.read_misses            0                       # DTB read misses
system.cpu.istage2_mmu.stage2_tlb.write_hits            0                       # DTB write hits
system.cpu.istage2_mmu.stage2_tlb.write_misses            0                       # DTB write misses
system.cpu.istage2_mmu.stage2_tlb.flush_tlb            0                       # Number of times complete TLB was flushed
system.cpu.istage2_mmu.stage2_tlb.flush_tlb_mva            0                       # Number of times TLB was flushed by MVA
system.cpu.istage2_mmu.stage2_tlb.flush_tlb_mva_asid            0                       # Number of times TLB was flushed by MVA & ASID
system.cpu.istage2_mmu.stage2_tlb.flush_tlb_asid            0                       # Number of times TLB was flushed by ASID
system.cpu.istage2_mmu.stage2_tlb.flush_entries            0                       # Number of entries that have been flushed from TLB
system.cpu.istage2_mmu.stage2_tlb.align_faults            0                       # Number of TLB faults due to alignment restrictions
system.cpu.istage2_mmu.stage2_tlb.prefetch_faults            0                       # Number of TLB faults due to prefetch
system.cpu.istage2_mmu.stage2_tlb.domain_faults            0                       # Number of TLB faults due to domain restrictions
system.cpu.istage2_mmu.stage2_tlb.perms_faults            0                       # Number of TLB faults due to permissions restrictions
system.cpu.istage2_mmu.stage2_tlb.read_accesses            0                       # DTB read accesses
system.cpu.istage2_mmu.stage2_tlb.write_accesses            0                       # DTB write accesses
system.cpu.istage2_mmu.stage2_tlb.inst_accesses            0                       # ITB inst accesses
system.cpu.istage2_mmu.stage2_tlb.hits              0                       # DTB hits
system.cpu.istage2_mmu.stage2_tlb.misses            0                       # DTB misses
system.cpu.istage2_mmu.stage2_tlb.accesses            0                       # DTB accesses
system.cpu.itb.walker.walks                         0                       # Table walker walks requested
system.cpu.itb.walker.walkRequestOrigin_Requested::Data            0                       # Table walker requests started/completed, data/inst
system.cpu.itb.walker.walkRequestOrigin_Requested::Inst            0                       # Table walker requests started/completed, data/inst
system.cpu.itb.walker.walkRequestOrigin_Requested::total            0                       # Table walker requests started/completed, data/inst
system.cpu.itb.walker.walkRequestOrigin_Completed::Data            0                       # Table walker requests started/completed, data/inst
system.cpu.itb.walker.walkRequestOrigin_Completed::Inst            0                       # Table walker requests started/completed, data/inst
system.cpu.itb.walker.walkRequestOrigin_Completed::total            0                       # Table walker requests started/completed, data/inst
system.cpu.itb.walker.walkRequestOrigin::total            0                       # Table walker requests started/completed, data/inst
system.cpu.itb.inst_hits                            0                       # ITB inst hits
system.cpu.itb.inst_misses                          0                       # ITB inst misses
system.cpu.itb.read_hits                            0                       # DTB read hits
system.cpu.itb.read_misses                          0                       # DTB read misses
system.cpu.itb.write_hits                           0                       # DTB write hits
system.cpu.itb.write_misses                         0                       # DTB write misses
system.cpu.itb.flush_tlb                            0                       # Number of times complete TLB was flushed
system.cpu.itb.flush_tlb_mva                        0                       # Number of times TLB was flushed by MVA
system.cpu.itb.flush_tlb_mva_asid                   0                       # Number of times TLB was flushed by MVA & ASID
system.cpu.itb.flush_tlb_asid                       0                       # Number of times TLB was flushed by ASID
system.cpu.itb.flush_entries                        0                       # Number of entries that have been flushed from TLB
system.cpu.itb.align_faults                         0                       # Number of TLB faults due to alignment restrictions
system.cpu.itb.prefetch_faults                      0                       # Number of TLB faults due to prefetch
system.cpu.itb.domain_faults                        0                       # Number of TLB faults due to domain restrictions
system.cpu.itb.perms_faults                         0                       # Number of TLB faults due to permissions restrictions
system.cpu.itb.read_accesses                        0                       # DTB read accesses
system.cpu.itb.write_accesses                       0                       # DTB write accesses
system.cpu.itb.inst_accesses                        0                       # ITB inst accesses
system.cpu.itb.hits                                 0                       # DTB hits
system.cpu.itb.misses                               0                       # DTB misses
system.cpu.itb.accesses                             0                       # DTB accesses
system.cpu.workload.num_syscalls                   12                       # Number of system calls
system.cpu.numCycles                            71195                       # number of cpu cycles simulated
system.cpu.numWorkItemsStarted                      0                       # number of work items this cpu started
system.cpu.numWorkItemsCompleted                    0                       # number of work items this cpu completed
system.cpu.fetch.icacheStallCycles              12764                       # Number of cycles fetch is stalled on an Icache miss
system.cpu.fetch.Insts                          27174                       # Number of instructions fetch has processed
system.cpu.fetch.Branches                        5347                       # Number of branches that fetch encountered
system.cpu.fetch.predictedBranches               1451                       # Number of branches that fetch has predicted taken
system.cpu.fetch.Cycles                         24684                       # Number of cycles fetch has run and was not squashing or blocked
system.cpu.fetch.SquashCycles                    2043                       # Number of cycles fetch has spent squashing
system.cpu.fetch.MiscStallCycles                  255                       # Number of cycles fetch has spent waiting on interrupts, or bad addresses, or out of MSHRs
system.cpu.fetch.PendingTrapStallCycles           314                       # Number of stall cycles due to pending traps
system.cpu.fetch.IcacheWaitRetryStallCycles          690                       # Number of stall cycles due to full MSHR
system.cpu.fetch.CacheLines                      8845                       # Number of cache lines fetched
system.cpu.fetch.IcacheSquashes                   346                       # Number of outstanding Icache misses that were squashed
system.cpu.fetch.rateDist::samples              39728                       # Number of instructions fetched each cycle (Total)
system.cpu.fetch.rateDist::mean              0.792036                       # Number of instructions fetched each cycle (Total)
system.cpu.fetch.rateDist::stdev             1.178099                       # Number of instructions fetched each cycle (Total)
system.cpu.fetch.rateDist::underflows               0      0.00%      0.00% # Number of instructions fetched each cycle (Total)
system.cpu.fetch.rateDist::0                    24933     62.76%     62.76% # Number of instructions fetched each cycle (Total)
system.cpu.fetch.rateDist::1                     5750     14.47%     77.23% # Number of instructions fetched each cycle (Total)
system.cpu.fetch.rateDist::2                     1419      3.57%     80.80% # Number of instructions fetched each cycle (Total)
system.cpu.fetch.rateDist::3                     7626     19.20%    100.00% # Number of instructions fetched each cycle (Total)
system.cpu.fetch.rateDist::overflows                0      0.00%    100.00% # Number of instructions fetched each cycle (Total)
system.cpu.fetch.rateDist::min_value                0                       # Number of instructions fetched each cycle (Total)
system.cpu.fetch.rateDist::max_value                3                       # Number of instructions fetched each cycle (Total)
system.cpu.fetch.rateDist::total                39728                       # Number of instructions fetched each cycle (Total)
system.cpu.fetch.branchRate                  0.075104                       # Number of branch fetches per cycle
system.cpu.fetch.rate                        0.381684                       # Number of inst fetches per cycle
system.cpu.decode.IdleCycles                    12273                       # Number of cycles decode is idle
system.cpu.decode.BlockedCycles                 15171                       # Number of cycles decode is blocked
system.cpu.decode.RunCycles                     11053                       # Number of cycles decode is running
system.cpu.decode.UnblockCycles                   480                       # Number of cycles decode is unblocking
system.cpu.decode.SquashCycles                    751                       # Number of cycles decode is squashing
system.cpu.decode.BranchResolved                  670                       # Number of times decode resolved a branch
system.cpu.decode.BranchMispred                   290                       # Number of times decode detected a branch misprediction
system.cpu.decode.DecodedInsts                  23111                       # Number of instructions handled by decode
system.cpu.decode.SquashedInsts                  2936                       # Number of squashed instructions handled by decode
system.cpu.rename.SquashCycles                    751                       # Number of cycles rename is squashing
system.cpu.rename.IdleCycles                    14486                       # Number of cycles rename is idle
system.cpu.rename.BlockCycles                    9206                       # Number of cycles rename is blocking
system.cpu.rename.serializeStallCycles           3351                       # count of cycles rename stalled for serializing inst
system.cpu.rename.RunCycles                      9242                       # Number of cycles rename is running
system.cpu.rename.UnblockCycles                  2692                       # Number of cycles rename is unblocking
system.cpu.rename.RenamedInsts                  20871                       # Number of instructions processed by rename
system.cpu.rename.SquashedInsts                   857                       # Number of squashed instructions processed by rename
system.cpu.rename.ROBFullEvents                   321                       # Number of times rename has blocked due to ROB full
system.cpu.rename.IQFullEvents                     17                       # Number of times rename has blocked due to IQ full
system.cpu.rename.LQFullEvents                    109                       # Number of times rename has blocked due to LQ full
system.cpu.rename.SQFullEvents                   2148                       # Number of times rename has blocked due to SQ full
system.cpu.rename.RenamedOperands               22139                       # Number of destination operands rename has renamed
system.cpu.rename.RenameLookups                 95498                       # Number of register rename lookups that rename has made
system.cpu.rename.int_rename_lookups            24197                       # Number of integer rename lookups
system.cpu.rename.fp_rename_lookups                16                       # Number of floating rename lookups
system.cpu.rename.CommittedMaps                 13027                       # Number of HB maps that are committed
system.cpu.rename.UndoneMaps                     9112                       # Number of HB maps that are undone due to squashing
system.cpu.rename.serializingInsts                 51                       # count of serializing insts renamed
system.cpu.rename.tempSerializingInsts             51                       # count of temporary serializing insts renamed
system.cpu.rename.skidInsts                      1339                       # count of insts added to the skid buffer
system.cpu.memDep0.insertedLoads                 3996                       # Number of loads inserted to the mem dependence unit.
system.cpu.memDep0.insertedStores                2971                       # Number of stores inserted to the mem dependence unit.
system.cpu.memDep0.conflictingLoads                48                       # Number of conflicting loads.
system.cpu.memDep0.conflictingStores                0                       # Number of conflicting stores.
system.cpu.iq.iqInstsAdded                      19773                       # Number of instructions added to the IQ (excludes non-spec)
system.cpu.iq.iqNonSpecInstsAdded                  76                       # Number of non-speculative instructions added to the IQ
system.cpu.iq.iqInstsIssued                     16820                       # Number of instructions issued
system.cpu.iq.iqSquashedInstsIssued               367                       # Number of squashed instructions issued
system.cpu.iq.iqSquashedInstsExamined            7239                       # Number of squashed instructions iterated over during squash; mainly for profiling
system.cpu.iq.iqSquashedOperandsExamined        19021                       # Number of squashed operands that are examined and possibly removed from graph
system.cpu.iq.iqSquashedNonSpecRemoved             12                       # Number of squashed non-spec instructions that were removed
system.cpu.iq.issued_per_cycle::samples         39728                       # Number of insts issued each cycle
system.cpu.iq.issued_per_cycle::mean         0.423379                       # Number of insts issued each cycle
system.cpu.iq.issued_per_cycle::stdev        0.820680                       # Number of insts issued each cycle
system.cpu.iq.issued_per_cycle::underflows            0      0.00%      0.00% # Number of insts issued each cycle
system.cpu.iq.issued_per_cycle::0               29732     74.84%     74.84% # Number of insts issued each cycle
system.cpu.iq.issued_per_cycle::1                4792     12.06%     86.90% # Number of insts issued each cycle
system.cpu.iq.issued_per_cycle::2                3669      9.24%     96.14% # Number of insts issued each cycle
system.cpu.iq.issued_per_cycle::3                1450      3.65%     99.79% # Number of insts issued each cycle
system.cpu.iq.issued_per_cycle::4                  85      0.21%    100.00% # Number of insts issued each cycle
system.cpu.iq.issued_per_cycle::5                   0      0.00%    100.00% # Number of insts issued each cycle
system.cpu.iq.issued_per_cycle::6                   0      0.00%    100.00% # Number of insts issued each cycle
system.cpu.iq.issued_per_cycle::7                   0      0.00%    100.00% # Number of insts issued each cycle
system.cpu.iq.issued_per_cycle::8                   0      0.00%    100.00% # Number of insts issued each cycle
system.cpu.iq.issued_per_cycle::overflows            0      0.00%    100.00% # Number of insts issued each cycle
system.cpu.iq.issued_per_cycle::min_value            0                       # Number of insts issued each cycle
system.cpu.iq.issued_per_cycle::max_value            4                       # Number of insts issued each cycle
system.cpu.iq.issued_per_cycle::total           39728                       # Number of insts issued each cycle
system.cpu.iq.fu_full::No_OpClass                   0      0.00%      0.00% # attempts to use FU when none available
system.cpu.iq.fu_full::IntAlu                    1036     32.65%     32.65% # attempts to use FU when none available
system.cpu.iq.fu_full::IntMult                      0      0.00%     32.65% # attempts to use FU when none available
system.cpu.iq.fu_full::IntDiv                       0      0.00%     32.65% # attempts to use FU when none available
system.cpu.iq.fu_full::FloatAdd                     0      0.00%     32.65% # attempts to use FU when none available
system.cpu.iq.fu_full::FloatCmp                     0      0.00%     32.65% # attempts to use FU when none available
system.cpu.iq.fu_full::FloatCvt                     0      0.00%     32.65% # attempts to use FU when none available
system.cpu.iq.fu_full::FloatMult                    0      0.00%     32.65% # attempts to use FU when none available
system.cpu.iq.fu_full::FloatDiv                     0      0.00%     32.65% # attempts to use FU when none available
system.cpu.iq.fu_full::FloatSqrt                    0      0.00%     32.65% # attempts to use FU when none available
system.cpu.iq.fu_full::SimdAdd                      0      0.00%     32.65% # attempts to use FU when none available
system.cpu.iq.fu_full::SimdAddAcc                   0      0.00%     32.65% # attempts to use FU when none available
system.cpu.iq.fu_full::SimdAlu                      0      0.00%     32.65% # attempts to use FU when none available
system.cpu.iq.fu_full::SimdCmp                      0      0.00%     32.65% # attempts to use FU when none available
system.cpu.iq.fu_full::SimdCvt                      0      0.00%     32.65% # attempts to use FU when none available
system.cpu.iq.fu_full::SimdMisc                     0      0.00%     32.65% # attempts to use FU when none available
system.cpu.iq.fu_full::SimdMult                     0      0.00%     32.65% # attempts to use FU when none available
system.cpu.iq.fu_full::SimdMultAcc                  0      0.00%     32.65% # attempts to use FU when none available
system.cpu.iq.fu_full::SimdShift                    0      0.00%     32.65% # attempts to use FU when none available
system.cpu.iq.fu_full::SimdShiftAcc                 0      0.00%     32.65% # attempts to use FU when none available
system.cpu.iq.fu_full::SimdSqrt                     0      0.00%     32.65% # attempts to use FU when none available
system.cpu.iq.fu_full::SimdFloatAdd                 0      0.00%     32.65% # attempts to use FU when none available
system.cpu.iq.fu_full::SimdFloatAlu                 0      0.00%     32.65% # attempts to use FU when none available
system.cpu.iq.fu_full::SimdFloatCmp                 0      0.00%     32.65% # attempts to use FU when none available
system.cpu.iq.fu_full::SimdFloatCvt                 0      0.00%     32.65% # attempts to use FU when none available
system.cpu.iq.fu_full::SimdFloatDiv                 0      0.00%     32.65% # attempts to use FU when none available
system.cpu.iq.fu_full::SimdFloatMisc                0      0.00%     32.65% # attempts to use FU when none available
system.cpu.iq.fu_full::SimdFloatMult                0      0.00%     32.65% # attempts to use FU when none available
system.cpu.iq.fu_full::SimdFloatMultAcc             0      0.00%     32.65% # attempts to use FU when none available
system.cpu.iq.fu_full::SimdFloatSqrt                0      0.00%     32.65% # attempts to use FU when none available
system.cpu.iq.fu_full::MemRead                    987     31.11%     63.76% # attempts to use FU when none available
system.cpu.iq.fu_full::MemWrite                  1150     36.24%    100.00% # attempts to use FU when none available
system.cpu.iq.fu_full::IprAccess                    0      0.00%    100.00% # attempts to use FU when none available
system.cpu.iq.fu_full::InstPrefetch                 0      0.00%    100.00% # attempts to use FU when none available
system.cpu.iq.FU_type_0::No_OpClass                 0      0.00%      0.00% # Type of FU issued
system.cpu.iq.FU_type_0::IntAlu                 10823     64.35%     64.35% # Type of FU issued
system.cpu.iq.FU_type_0::IntMult                    5      0.03%     64.38% # Type of FU issued
system.cpu.iq.FU_type_0::IntDiv                     0      0.00%     64.38% # Type of FU issued
system.cpu.iq.FU_type_0::FloatAdd                   0      0.00%     64.38% # Type of FU issued
system.cpu.iq.FU_type_0::FloatCmp                   0      0.00%     64.38% # Type of FU issued
system.cpu.iq.FU_type_0::FloatCvt                   0      0.00%     64.38% # Type of FU issued
system.cpu.iq.FU_type_0::FloatMult                  0      0.00%     64.38% # Type of FU issued
system.cpu.iq.FU_type_0::FloatDiv                   0      0.00%     64.38% # Type of FU issued
system.cpu.iq.FU_type_0::FloatSqrt                  0      0.00%     64.38% # Type of FU issued
system.cpu.iq.FU_type_0::SimdAdd                    0      0.00%     64.38% # Type of FU issued
system.cpu.iq.FU_type_0::SimdAddAcc                 0      0.00%     64.38% # Type of FU issued
system.cpu.iq.FU_type_0::SimdAlu                    0      0.00%     64.38% # Type of FU issued
system.cpu.iq.FU_type_0::SimdCmp                    0      0.00%     64.38% # Type of FU issued
system.cpu.iq.FU_type_0::SimdCvt                    0      0.00%     64.38% # Type of FU issued
system.cpu.iq.FU_type_0::SimdMisc                   0      0.00%     64.38% # Type of FU issued
system.cpu.iq.FU_type_0::SimdMult                   0      0.00%     64.38% # Type of FU issued
system.cpu.iq.FU_type_0::SimdMultAcc                0      0.00%     64.38% # Type of FU issued
system.cpu.iq.FU_type_0::SimdShift                  0      0.00%     64.38% # Type of FU issued
system.cpu.iq.FU_type_0::SimdShiftAcc               0      0.00%     64.38% # Type of FU issued
system.cpu.iq.FU_type_0::SimdSqrt                   0      0.00%     64.38% # Type of FU issued
system.cpu.iq.FU_type_0::SimdFloatAdd               0      0.00%     64.38% # Type of FU issued
system.cpu.iq.FU_type_0::SimdFloatAlu               0      0.00%     64.38% # Type of FU issued
system.cpu.iq.FU_type_0::SimdFloatCmp               0      0.00%     64.38% # Type of FU issued
system.cpu.iq.FU_type_0::SimdFloatCvt               0      0.00%     64.38% # Type of FU issued
system.cpu.iq.FU_type_0::SimdFloatDiv               0      0.00%     64.38% # Type of FU issued
system.cpu.iq.FU_type_0::SimdFloatMisc              0      0.00%     64.38% # Type of FU issued
system.cpu.iq.FU_type_0::SimdFloatMult              0      0.00%     64.38% # Type of FU issued
system.cpu.iq.FU_type_0::SimdFloatMultAcc            0      0.00%     64.38% # Type of FU issued
system.cpu.iq.FU_type_0::SimdFloatSqrt              0      0.00%     64.38% # Type of FU issued
system.cpu.iq.FU_type_0::MemRead                 3427     20.37%     84.75% # Type of FU issued
system.cpu.iq.FU_type_0::MemWrite                2565     15.25%    100.00% # Type of FU issued
system.cpu.iq.FU_type_0::IprAccess                  0      0.00%    100.00% # Type of FU issued
system.cpu.iq.FU_type_0::InstPrefetch               0      0.00%    100.00% # Type of FU issued
system.cpu.iq.FU_type_0::total                  16820                       # Type of FU issued
system.cpu.iq.rate                           0.236253                       # Inst issue rate
system.cpu.iq.fu_busy_cnt                        3173                       # FU busy when requested
system.cpu.iq.fu_busy_rate                   0.188644                       # FU busy rate (busy events/executed inst)
system.cpu.iq.int_inst_queue_reads              76864                       # Number of integer instruction queue reads
system.cpu.iq.int_inst_queue_writes             27087                       # Number of integer instruction queue writes
system.cpu.iq.int_inst_queue_wakeup_accesses        15398                       # Number of integer instruction queue wakeup accesses
system.cpu.iq.fp_inst_queue_reads                  44                       # Number of floating instruction queue reads
system.cpu.iq.fp_inst_queue_writes                 16                       # Number of floating instruction queue writes
system.cpu.iq.fp_inst_queue_wakeup_accesses           16                       # Number of floating instruction queue wakeup accesses
system.cpu.iq.int_alu_accesses                  19965                       # Number of integer alu accesses
system.cpu.iq.fp_alu_accesses                      28                       # Number of floating point alu accesses
system.cpu.iew.lsq.thread0.forwLoads               19                       # Number of loads that had data forwarded from stores
system.cpu.iew.lsq.thread0.invAddrLoads             0                       # Number of loads ignored due to an invalid address
system.cpu.iew.lsq.thread0.squashedLoads         1778                       # Number of loads squashed
system.cpu.iew.lsq.thread0.ignoredResponses            1                       # Number of memory responses ignored because the instruction is squashed
system.cpu.iew.lsq.thread0.memOrderViolation           15                       # Number of memory ordering violations
system.cpu.iew.lsq.thread0.squashedStores          882                       # Number of stores squashed
system.cpu.iew.lsq.thread0.invAddrSwpfs             0                       # Number of software prefetches ignored due to an invalid address
system.cpu.iew.lsq.thread0.blockedLoads             0                       # Number of blocked loads due to partial load-store forwarding
system.cpu.iew.lsq.thread0.rescheduledLoads           33                       # Number of loads that were rescheduled
system.cpu.iew.lsq.thread0.cacheBlocked            50                       # Number of times an access to memory failed due to the cache being blocked
system.cpu.iew.iewIdleCycles                        0                       # Number of cycles IEW is idle
system.cpu.iew.iewSquashCycles                    751                       # Number of cycles IEW is squashing
system.cpu.iew.iewBlockCycles                     997                       # Number of cycles IEW is blocking
system.cpu.iew.iewUnblockCycles                   278                       # Number of cycles IEW is unblocking
system.cpu.iew.iewDispatchedInsts               19856                       # Number of instructions dispatched to IQ
system.cpu.iew.iewDispSquashedInsts                 0                       # Number of squashed instructions skipped by dispatch
system.cpu.iew.iewDispLoadInsts                  3996                       # Number of dispatched load instructions
system.cpu.iew.iewDispStoreInsts                 2971                       # Number of dispatched store instructions
system.cpu.iew.iewDispNonSpecInsts                 50                       # Number of dispatched non-speculative instructions
system.cpu.iew.iewIQFullEvents                     10                       # Number of times the IQ has become full, causing a stall
system.cpu.iew.iewLSQFullEvents                   263                       # Number of times the LSQ has become full, causing a stall
system.cpu.iew.memOrderViolationEvents             15                       # Number of memory order violations
system.cpu.iew.predictedTakenIncorrect             73                       # Number of branches that were predicted taken incorrectly
system.cpu.iew.predictedNotTakenIncorrect          684                       # Number of branches that were predicted not taken incorrectly
system.cpu.iew.branchMispredicts                  757                       # Number of branch mispredicts detected at execute
system.cpu.iew.iewExecutedInsts                 15852                       # Number of executed instructions
system.cpu.iew.iewExecLoadInsts                  2991                       # Number of load instructions executed
system.cpu.iew.iewExecSquashedInsts               968                       # Number of squashed instructions skipped in execute
system.cpu.iew.exec_swp                             0                       # number of swp insts executed
system.cpu.iew.exec_nop                             7                       # number of nop insts executed
system.cpu.iew.exec_refs                         5448                       # number of memory reference insts executed
system.cpu.iew.exec_branches                     2714                       # Number of branches executed
system.cpu.iew.exec_stores                       2457                       # Number of stores executed
system.cpu.iew.exec_rate                     0.222656                       # Inst execution rate
system.cpu.iew.wb_sent                          15481                       # cumulative count of insts sent to commit
system.cpu.iew.wb_count                         15414                       # cumulative count of insts written-back
system.cpu.iew.wb_producers                      7690                       # num instructions producing a value
system.cpu.iew.wb_consumers                     12673                       # num instructions consuming a value
system.cpu.iew.wb_penalized                         0                       # number of instrctions required to write to 'other' IQ
system.cpu.iew.wb_rate                       0.216504                       # insts written-back per cycle
system.cpu.iew.wb_fanout                     0.606802                       # average fanout of values written-back
system.cpu.iew.wb_penalized_rate                    0                       # fraction of instructions written-back that wrote to 'other' IQ
system.cpu.commit.commitSquashedInsts            6232                       # The number of squashed insts skipped by commit
system.cpu.commit.commitNonSpecStalls              64                       # The number of times commit has been forced to stall to communicate backwards
system.cpu.commit.branchMispredicts               727                       # The number of times a branch was mispredicted
system.cpu.commit.committed_per_cycle::samples        38510                       # Number of insts commited each cycle
system.cpu.commit.committed_per_cycle::mean     0.327447                       # Number of insts commited each cycle
system.cpu.commit.committed_per_cycle::stdev     1.025815                       # Number of insts commited each cycle
system.cpu.commit.committed_per_cycle::underflows            0      0.00%      0.00% # Number of insts commited each cycle
system.cpu.commit.committed_per_cycle::0        32687     84.88%     84.88% # Number of insts commited each cycle
system.cpu.commit.committed_per_cycle::1         2956      7.68%     92.56% # Number of insts commited each cycle
system.cpu.commit.committed_per_cycle::2         1286      3.34%     95.89% # Number of insts commited each cycle
system.cpu.commit.committed_per_cycle::3          631      1.64%     97.53% # Number of insts commited each cycle
system.cpu.commit.committed_per_cycle::4          436      1.13%     98.67% # Number of insts commited each cycle
system.cpu.commit.committed_per_cycle::5          137      0.36%     99.02% # Number of insts commited each cycle
system.cpu.commit.committed_per_cycle::6           92      0.24%     99.26% # Number of insts commited each cycle
system.cpu.commit.committed_per_cycle::7           72      0.19%     99.45% # Number of insts commited each cycle
system.cpu.commit.committed_per_cycle::8          213      0.55%    100.00% # Number of insts commited each cycle
system.cpu.commit.committed_per_cycle::overflows            0      0.00%    100.00% # Number of insts commited each cycle
system.cpu.commit.committed_per_cycle::min_value            0                       # Number of insts commited each cycle
system.cpu.commit.committed_per_cycle::max_value            8                       # Number of insts commited each cycle
system.cpu.commit.committed_per_cycle::total        38510                       # Number of insts commited each cycle
system.cpu.commit.committedInsts                10777                       # Number of instructions committed
system.cpu.commit.committedOps                  12610                       # Number of ops (including micro ops) committed
system.cpu.commit.swp_count                         0                       # Number of s/w prefetches committed
system.cpu.commit.refs                           4307                       # Number of memory references committed
system.cpu.commit.loads                          2218                       # Number of loads committed
system.cpu.commit.membars                          26                       # Number of memory barriers committed
system.cpu.commit.branches                       2195                       # Number of branches committed
system.cpu.commit.fp_insts                         16                       # Number of committed floating point instructions.
system.cpu.commit.int_insts                     10933                       # Number of committed integer instructions.
system.cpu.commit.function_calls                  202                       # Number of function calls committed.
system.cpu.commit.op_class_0::No_OpClass            0      0.00%      0.00% # Class of committed instruction
system.cpu.commit.op_class_0::IntAlu             8298     65.80%     65.80% # Class of committed instruction
system.cpu.commit.op_class_0::IntMult               5      0.04%     65.84% # Class of committed instruction
system.cpu.commit.op_class_0::IntDiv                0      0.00%     65.84% # Class of committed instruction
system.cpu.commit.op_class_0::FloatAdd              0      0.00%     65.84% # Class of committed instruction
system.cpu.commit.op_class_0::FloatCmp              0      0.00%     65.84% # Class of committed instruction
system.cpu.commit.op_class_0::FloatCvt              0      0.00%     65.84% # Class of committed instruction
system.cpu.commit.op_class_0::FloatMult             0      0.00%     65.84% # Class of committed instruction
system.cpu.commit.op_class_0::FloatDiv              0      0.00%     65.84% # Class of committed instruction
system.cpu.commit.op_class_0::FloatSqrt             0      0.00%     65.84% # Class of committed instruction
system.cpu.commit.op_class_0::SimdAdd               0      0.00%     65.84% # Class of committed instruction
system.cpu.commit.op_class_0::SimdAddAcc            0      0.00%     65.84% # Class of committed instruction
system.cpu.commit.op_class_0::SimdAlu               0      0.00%     65.84% # Class of committed instruction
system.cpu.commit.op_class_0::SimdCmp               0      0.00%     65.84% # Class of committed instruction
system.cpu.commit.op_class_0::SimdCvt               0      0.00%     65.84% # Class of committed instruction
system.cpu.commit.op_class_0::SimdMisc              0      0.00%     65.84% # Class of committed instruction
system.cpu.commit.op_class_0::SimdMult              0      0.00%     65.84% # Class of committed instruction
system.cpu.commit.op_class_0::SimdMultAcc            0      0.00%     65.84% # Class of committed instruction
system.cpu.commit.op_class_0::SimdShift             0      0.00%     65.84% # Class of committed instruction
system.cpu.commit.op_class_0::SimdShiftAcc            0      0.00%     65.84% # Class of committed instruction
system.cpu.commit.op_class_0::SimdSqrt              0      0.00%     65.84% # Class of committed instruction
system.cpu.commit.op_class_0::SimdFloatAdd            0      0.00%     65.84% # Class of committed instruction
system.cpu.commit.op_class_0::SimdFloatAlu            0      0.00%     65.84% # Class of committed instruction
system.cpu.commit.op_class_0::SimdFloatCmp            0      0.00%     65.84% # Class of committed instruction
system.cpu.commit.op_class_0::SimdFloatCvt            0      0.00%     65.84% # Class of committed instruction
system.cpu.commit.op_class_0::SimdFloatDiv            0      0.00%     65.84% # Class of committed instruction
system.cpu.commit.op_class_0::SimdFloatMisc            0      0.00%     65.84% # Class of committed instruction
system.cpu.commit.op_class_0::SimdFloatMult            0      0.00%     65.84% # Class of committed instruction
system.cpu.commit.op_class_0::SimdFloatMultAcc            0      0.00%     65.84% # Class of committed instruction
system.cpu.commit.op_class_0::SimdFloatSqrt            0      0.00%     65.84% # Class of committed instruction
system.cpu.commit.op_class_0::MemRead            2218     17.59%     83.43% # Class of committed instruction
system.cpu.commit.op_class_0::MemWrite           2089     16.57%    100.00% # Class of committed instruction
system.cpu.commit.op_class_0::IprAccess             0      0.00%    100.00% # Class of committed instruction
system.cpu.commit.op_class_0::InstPrefetch            0      0.00%    100.00% # Class of committed instruction
system.cpu.commit.op_class_0::total             12610                       # Class of committed instruction
system.cpu.commit.bw_lim_events                   213                       # number cycles where commit BW limit reached
system.cpu.rob.rob_reads                        56996                       # The number of ROB reads
system.cpu.rob.rob_writes                       38905                       # The number of ROB writes
system.cpu.timesIdled                             487                       # Number of times that the entire CPU went into an idle state and unscheduled itself
system.cpu.idleCycles                           31467                       # Total number of cycles that the CPU has spent unscheduled due to idling
[...]
system.cpu.dcache.blocked::no_mshrs                 0                       # number of cycles access was blocked
system.cpu.dcache.blocked::no_targets              38                       # number of cycles access was blocked
system.cpu.dcache.avg_blocked_cycles::no_mshrs          nan                       # average number of cycles each access was blocked
system.cpu.dcache.avg_blocked_cycles::no_targets    65.921053                       # average number of cycles each access was blocked
system.cpu.dcache.fast_writes                       0                       # number of fast writes performed
system.cpu.dcache.cache_copies                      0                       # number of cache copies performed
system.cpu.dcache.writebacks::writebacks          209                       # number of writebacks
system.cpu.dcache.writebacks::total               209                       # number of writebacks
system.cpu.dcache.ReadReq_mshr_hits::cpu.data          249                       # number of ReadReq MSHR hits
system.cpu.dcache.ReadReq_mshr_hits::total          249                       # number of ReadReq MSHR hits
system.cpu.dcache.WriteReq_mshr_hits::cpu.data          350                       # number of WriteReq MSHR hits
system.cpu.dcache.WriteReq_mshr_hits::total          350                       # number of WriteReq MSHR hits
system.cpu.dcache.LoadLockedReq_mshr_hits::cpu.data            4                       # number of LoadLockedReq MSHR hits
system.cpu.dcache.LoadLockedReq_mshr_hits::total            4                       # number of LoadLockedReq MSHR hits
system.cpu.dcache.demand_mshr_hits::cpu.data          599                       # number of demand (read+write) MSHR hits
system.cpu.dcache.demand_mshr_hits::total          599                       # number of demand (read+write) MSHR hits
system.cpu.dcache.overall_mshr_hits::cpu.data          599                       # number of overall MSHR hits
system.cpu.dcache.overall_mshr_hits::total          599                       # number of overall MSHR hits
system.cpu.dcache.ReadReq_mshr_misses::cpu.data          460                       # number of ReadReq MSHR misses
system.cpu.dcache.ReadReq_mshr_misses::total          460                       # number of ReadReq MSHR misses
system.cpu.dcache.WriteReq_mshr_misses::cpu.data          137                       # number of WriteReq MSHR misses
system.cpu.dcache.WriteReq_mshr_misses::total          137                       # number of WriteReq MSHR misses
system.cpu.dcache.demand_mshr_misses::cpu.data          597                       # number of demand (read+write) MSHR misses
system.cpu.dcache.demand_mshr_misses::total          597                       # number of demand (read+write) MSHR misses
system.cpu.dcache.overall_mshr_misses::cpu.data          597                       # number of overall MSHR misses
system.cpu.dcache.overall_mshr_misses::total          597                       # number of overall MSHR misses
system.cpu.dcache.ReadReq_mshr_miss_latency::cpu.data     23592250                       # number of ReadReq MSHR miss cycles
system.cpu.dcache.ReadReq_mshr_miss_latency::total     23592250                       # number of ReadReq MSHR miss cycles
system.cpu.dcache.WriteReq_mshr_miss_latency::cpu.data      6229500                       # number of WriteReq MSHR miss cycles
system.cpu.dcache.WriteReq_mshr_miss_latency::total      6229500                       # number of WriteReq MSHR miss cycles
system.cpu.dcache.demand_mshr_miss_latency::cpu.data     29821750                       # number of demand (read+write) MSHR miss cycles
system.cpu.dcache.demand_mshr_miss_latency::total     29821750                       # number of demand (read+write) MSHR miss cycles
system.cpu.dcache.overall_mshr_miss_latency::cpu.data     29821750                       # number of overall MSHR miss cycles
system.cpu.dcache.overall_mshr_miss_latency::total     29821750                       # number of overall MSHR miss cycles
system.cpu.dcache.ReadReq_mshr_miss_rate::cpu.data     0.165408                       # mshr miss rate for ReadReq accesses
system.cpu.dcache.ReadReq_mshr_miss_rate::total     0.165408                       # mshr miss rate for ReadReq accesses
system.cpu.dcache.WriteReq_mshr_miss_rate::cpu.data     0.068295                       # mshr miss rate for WriteReq accesses
system.cpu.dcache.WriteReq_mshr_miss_rate::total     0.068295                       # mshr miss rate for WriteReq accesses
system.cpu.dcache.demand_mshr_miss_rate::cpu.data     0.124713                       # mshr miss rate for demand accesses
system.cpu.dcache.demand_mshr_miss_rate::total     0.124713                       # mshr miss rate for demand accesses
system.cpu.dcache.overall_mshr_miss_rate::cpu.data     0.124713                       # mshr miss rate for overall accesses
system.cpu.dcache.overall_mshr_miss_rate::total     0.124713                       # mshr miss rate for overall accesses
system.cpu.dcache.ReadReq_avg_mshr_miss_latency::cpu.data 51287.500000                       # average ReadReq mshr miss latency
system.cpu.dcache.ReadReq_avg_mshr_miss_latency::total 51287.500000                       # average ReadReq mshr miss latency
system.cpu.dcache.WriteReq_avg_mshr_miss_latency::cpu.data 45470.802920                       # average WriteReq mshr miss latency
system.cpu.dcache.WriteReq_avg_mshr_miss_latency::total 45470.802920                       # average WriteReq mshr miss latency
system.cpu.dcache.demand_avg_mshr_miss_latency::cpu.data 49952.680067                       # average overall mshr miss latency
system.cpu.dcache.demand_avg_mshr_miss_latency::total 49952.680067                       # average overall mshr miss latency
system.cpu.dcache.overall_avg_mshr_miss_latency::cpu.data 49952.680067                       # average overall mshr miss latency
system.cpu.dcache.overall_avg_mshr_miss_latency::total 49952.680067                       # average overall mshr miss latency
system.cpu.dcache.no_allocate_misses                0                       # Number of misses that were no-allocate
system.cpu.icache.tags.replacements               139                       # number of replacements
system.cpu.icache.tags.tagsinuse           225.156219                       # Cycle average of tags in use
system.cpu.icache.tags.total_refs                8186                       # Total number of references to valid blocks.
system.cpu.icache.tags.sampled_refs               532                       # Sample count of references to valid blocks.
system.cpu.icache.tags.avg_refs             15.387218                       # Average number of references to valid blocks.
system.cpu.icache.tags.warmup_cycle                 0                       # Cycle when the warmup percentage was hit.
system.cpu.icache.tags.occ_blocks::cpu.inst   225.156219                       # Average occupied blocks per requestor
system.cpu.icache.tags.occ_percent::cpu.inst     0.439758                       # Average percentage of cache occupancy
system.cpu.icache.tags.occ_percent::total     0.439758                       # Average percentage of cache occupancy
system.cpu.icache.tags.occ_task_id_blocks::1024          393                       # Occupied blocks per task id
system.cpu.icache.tags.age_task_id_blocks_1024::0          144                       # Occupied blocks per task id
system.cpu.icache.tags.age_task_id_blocks_1024::1          249                       # Occupied blocks per task id
system.cpu.icache.tags.occ_task_id_percent::1024     0.767578                       # Percentage of cache occupancy per task id
system.cpu.icache.tags.tag_accesses             18212                       # Number of tag accesses
system.cpu.icache.tags.data_accesses            18212                       # Number of data accesses
system.cpu.icache.ReadReq_hits::cpu.inst         8186                       # number of ReadReq hits
system.cpu.icache.ReadReq_hits::total            8186                       # number of ReadReq hits
system.cpu.icache.demand_hits::cpu.inst          8186                       # number of demand (read+write) hits
system.cpu.icache.demand_hits::total             8186                       # number of demand (read+write) hits
system.cpu.icache.overall_hits::cpu.inst         8186                       # number of overall hits
system.cpu.icache.overall_hits::total            8186                       # number of overall hits
system.cpu.icache.ReadReq_misses::cpu.inst          654                       # number of ReadReq misses
system.cpu.icache.ReadReq_misses::total           654                       # number of ReadReq misses
system.cpu.icache.demand_misses::cpu.inst          654                       # number of demand (read+write) misses
system.cpu.icache.demand_misses::total            654                       # number of demand (read+write) misses
system.cpu.icache.overall_misses::cpu.inst          654                       # number of overall misses
system.cpu.icache.overall_misses::total           654                       # number of overall misses
system.cpu.icache.ReadReq_miss_latency::cpu.inst     34556991                       # number of ReadReq miss cycles
system.cpu.icache.ReadReq_miss_latency::total     34556991                       # number of ReadReq miss cycles
system.cpu.icache.demand_miss_latency::cpu.inst     34556991                       # number of demand (read+write) miss cycles
system.cpu.icache.demand_miss_latency::total     34556991                       # number of demand (read+write) miss cycles
system.cpu.icache.overall_miss_latency::cpu.inst     34556991                       # number of overall miss cycles
system.cpu.icache.overall_miss_latency::total     34556991                       # number of overall miss cycles
system.cpu.icache.ReadReq_accesses::cpu.inst         8840                       # number of ReadReq accesses(hits+misses)
system.cpu.icache.ReadReq_accesses::total         8840                       # number of ReadReq accesses(hits+misses)
system.cpu.icache.demand_accesses::cpu.inst         8840                       # number of demand (read+write) accesses
system.cpu.icache.demand_accesses::total         8840                       # number of demand (read+write) accesses
system.cpu.icache.overall_accesses::cpu.inst         8840                       # number of overall (read+write) accesses
system.cpu.icache.overall_accesses::total         8840                       # number of overall (read+write) accesses
system.cpu.icache.ReadReq_miss_rate::cpu.inst     0.073982                       # miss rate for ReadReq accesses
system.cpu.icache.ReadReq_miss_rate::total     0.073982                       # miss rate for ReadReq accesses
system.cpu.icache.demand_miss_rate::cpu.inst     0.073982                       # miss rate for demand accesses
system.cpu.icache.demand_miss_rate::total     0.073982                       # miss rate for demand accesses
system.cpu.icache.overall_miss_rate::cpu.inst     0.073982                       # miss rate for overall accesses
system.cpu.icache.overall_miss_rate::total     0.073982                       # miss rate for overall accesses
system.cpu.icache.ReadReq_avg_miss_latency::cpu.inst 52839.435780                       # average ReadReq miss latency
system.cpu.icache.ReadReq_avg_miss_latency::total 52839.435780                       # average ReadReq miss latency
system.cpu.icache.demand_avg_miss_latency::cpu.inst 52839.435780                       # average overall miss latency
system.cpu.icache.demand_avg_miss_latency::total 52839.435780                       # average overall miss latency
system.cpu.icache.overall_avg_miss_latency::cpu.inst 52839.435780                       # average overall miss latency
system.cpu.icache.overall_avg_miss_latency::total 52839.435780                       # average overall miss latency
system.cpu.icache.blocked_cycles::no_mshrs        11090                       # number of cycles access was blocked
system.cpu.icache.blocked_cycles::no_targets            1                       # number of cycles access was blocked
system.cpu.icache.blocked::no_mshrs               157                       # number of cycles access was blocked
system.cpu.icache.blocked::no_targets               1                       # number of cycles access was blocked
system.cpu.icache.avg_blocked_cycles::no_mshrs    70.636943                       # average number of cycles each access was blocked
system.cpu.icache.avg_blocked_cycles::no_targets            1                       # average number of cycles each access was blocked
system.cpu.icache.fast_writes                       0                       # number of fast writes performed
system.cpu.icache.cache_copies                      0                       # number of cache copies performed
system.cpu.icache.ReadReq_mshr_hits::cpu.inst          121                       # number of ReadReq MSHR hits
system.cpu.icache.ReadReq_mshr_hits::total          121                       # number of ReadReq MSHR hits
system.cpu.icache.demand_mshr_hits::cpu.inst          121                       # number of demand (read+write) MSHR hits
system.cpu.icache.demand_mshr_hits::total          121                       # number of demand (read+write) MSHR hits
system.cpu.icache.overall_mshr_hits::cpu.inst          121                       # number of overall MSHR hits
system.cpu.icache.overall_mshr_hits::total          121                       # number of overall MSHR hits
system.cpu.icache.ReadReq_mshr_misses::cpu.inst          533                       # number of ReadReq MSHR misses
system.cpu.icache.ReadReq_mshr_misses::total          533                       # number of ReadReq MSHR misses
system.cpu.icache.demand_mshr_misses::cpu.inst          533                       # number of demand (read+write) MSHR misses
system.cpu.icache.demand_mshr_misses::total          533                       # number of demand (read+write) MSHR misses
system.cpu.icache.overall_mshr_misses::cpu.inst          533                       # number of overall MSHR misses
system.cpu.icache.overall_mshr_misses::total          533                       # number of overall MSHR misses
system.cpu.icache.ReadReq_mshr_miss_latency::cpu.inst     29423995                       # number of ReadReq MSHR miss cycles
system.cpu.icache.ReadReq_mshr_miss_latency::total     29423995                       # number of ReadReq MSHR miss cycles
system.cpu.icache.demand_mshr_miss_latency::cpu.inst     29423995                       # number of demand (read+write) MSHR miss cycles
system.cpu.icache.demand_mshr_miss_latency::total     29423995                       # number of demand (read+write) MSHR miss cycles
system.cpu.icache.overall_mshr_miss_latency::cpu.inst     29423995                       # number of overall MSHR miss cycles
system.cpu.icache.overall_mshr_miss_latency::total     29423995                       # number of overall MSHR miss cycles
system.cpu.icache.ReadReq_mshr_miss_rate::cpu.inst     0.060294                       # mshr miss rate for ReadReq accesses
system.cpu.icache.ReadReq_mshr_miss_rate::total     0.060294                       # mshr miss rate for ReadReq accesses
system.cpu.icache.demand_mshr_miss_rate::cpu.inst     0.060294                       # mshr miss rate for demand accesses
system.cpu.icache.demand_mshr_miss_rate::total     0.060294                       # mshr miss rate for demand accesses
system.cpu.icache.overall_mshr_miss_rate::cpu.inst     0.060294                       # mshr miss rate for overall accesses
system.cpu.icache.overall_mshr_miss_rate::total     0.060294                       # mshr miss rate for overall accesses
system.cpu.icache.ReadReq_avg_mshr_miss_latency::cpu.inst 55204.493433                       # average ReadReq mshr miss latency
system.cpu.icache.ReadReq_avg_mshr_miss_latency::total 55204.493433                       # average ReadReq mshr miss latency
system.cpu.icache.demand_avg_mshr_miss_latency::cpu.inst 55204.493433                       # average overall mshr miss latency
system.cpu.icache.demand_avg_mshr_miss_latency::total 55204.493433                       # average overall mshr miss latency
system.cpu.icache.overall_avg_mshr_miss_latency::cpu.inst 55204.493433                       # average overall mshr miss latency
system.cpu.icache.overall_avg_mshr_miss_latency::total 55204.493433                       # average overall mshr miss latency
system.cpu.icache.no_allocate_misses                0                       # Number of misses that were no-allocate
system.membus.trans_dist::ReadReq                 992                       # Transaction distribution
system.membus.trans_dist::ReadResp                991                       # Transaction distribution
system.membus.trans_dist::Writeback               209                       # Transaction distribution
system.membus.trans_dist::ReadExReq               138                       # Transaction distribution
system.membus.trans_dist::ReadExResp              138                       # Transaction distribution
system.membus.pkt_count_system.cpu.icache.mem_side::system.mem_ctrls.port         1065                       # Packet count per connected master and slave (bytes)
system.membus.pkt_count_system.cpu.dcache.mem_side::system.mem_ctrls.port         1403                       # Packet count per connected master and slave (bytes)
system.membus.pkt_count::total                   2468                       # Packet count per connected master and slave (bytes)
system.membus.pkt_size_system.cpu.icache.mem_side::system.mem_ctrls.port        34048                       # Cumulative packet size per connected master and slave (bytes)
system.membus.pkt_size_system.cpu.dcache.mem_side::system.mem_ctrls.port        51584                       # Cumulative packet size per connected master and slave (bytes)
system.membus.pkt_size::total                   85632                       # Cumulative packet size per connected master and slave (bytes)
system.membus.snoops                                0                       # Total snoops (count)
system.membus.snoop_fanout::samples              1339                       # Request fanout histogram
system.membus.snoop_fanout::mean                    1                       # Request fanout histogram
system.membus.snoop_fanout::stdev                   0                       # Request fanout histogram
system.membus.snoop_fanout::underflows              0      0.00%      0.00% # Request fanout histogram
system.membus.snoop_fanout::0                       0      0.00%      0.00% # Request fanout histogram
system.membus.snoop_fanout::1                    1339    100.00%    100.00% # Request fanout histogram
system.membus.snoop_fanout::2                       0      0.00%    100.00% # Request fanout histogram
system.membus.snoop_fanout::overflows               0      0.00%    100.00% # Request fanout histogram
system.membus.snoop_fanout::min_value               1                       # Request fanout histogram
system.membus.snoop_fanout::max_value               1                       # Request fanout histogram
system.membus.snoop_fanout::total                1339                       # Request fanout histogram
system.membus.reqLayer0.occupancy             2459500                       # Layer occupancy (ticks)
system.membus.reqLayer0.utilization               6.9                       # Layer utilization (%)
system.membus.respLayer1.occupancy            2833999                       # Layer occupancy (ticks)
system.membus.respLayer1.utilization              8.0                       # Layer utilization (%)
system.membus.respLayer2.occupancy            3142250                       # Layer occupancy (ticks)
system.membus.respLayer2.utilization              8.8                       # Layer utilization (%)

---------- End Simulation Statistics   ----------
