
---------- Begin Simulation Statistics ----------
sim_seconds                                  0.000035                       # Number of seconds simulated
sim_ticks                                    35311000                       # Number of ticks simulated
final_tick                                   35311000                       # Number of ticks from beginning of simulation (restored from checkpoints and never reset)
sim_freq                                 1000000000000                       # Frequency of simulated ticks
host_inst_rate                                  77650                       # Simulator instruction rate (inst/s)
host_op_rate                                    90850                       # Simulator op (including micro ops) rate (op/s)
host_tick_rate                              254382532                       # Simulator tick rate (ticks/s)
host_mem_usage                                 642760                       # Number of bytes of host memory used
host_seconds                                     0.14                       # Real time elapsed on the host
sim_insts                                       10777                       # Number of instructions simulated
sim_ops                                         12610                       # Number of ops (including micro ops) simulated
system.voltage_domain.voltage                       1                       # Voltage in Volts
system.clk_domain.clock                          1000                       # Clock period in ticks
system.mem_ctrls.bytes_read::cpu.inst           34176                       # Number of bytes read from this memory
system.mem_ctrls.bytes_read::cpu.data           35712                       # Number of bytes read from this memory
system.mem_ctrls.bytes_read::total              69888                       # Number of bytes read from this memory
system.mem_ctrls.bytes_inst_read::cpu.inst        34176                       # Number of instructions bytes read from this memory
system.mem_ctrls.bytes_inst_read::total         34176                       # Number of instructions bytes read from this memory
system.mem_ctrls.bytes_written::writebacks        11776                       # Number of bytes written to this memory
system.mem_ctrls.bytes_written::total           11776                       # Number of bytes written to this memory
system.mem_ctrls.num_reads::cpu.inst              534                       # Number of read requests responded to by this memory
system.mem_ctrls.num_reads::cpu.data              558                       # Number of read requests responded to by this memory
system.mem_ctrls.num_reads::total                1092                       # Number of read requests responded to by this memory
system.mem_ctrls.num_writes::writebacks           184                       # Number of write requests responded to by this memory
system.mem_ctrls.num_writes::total                184                       # Number of write requests responded to by this memory
system.mem_ctrls.bw_read::cpu.inst          967857042                       # Total read bandwidth from this memory (bytes/s)
system.mem_ctrls.bw_read::cpu.data         1011356235                       # Total read bandwidth from this memory (bytes/s)
system.mem_ctrls.bw_read::total            1979213276                       # Total read bandwidth from this memory (bytes/s)
system.mem_ctrls.bw_inst_read::cpu.inst     967857042                       # Instruction read bandwidth from this memory (bytes/s)
system.mem_ctrls.bw_inst_read::total        967857042                       # Instruction read bandwidth from this memory (bytes/s)
system.mem_ctrls.bw_write::writebacks       333493812                       # Write bandwidth from this memory (bytes/s)
system.mem_ctrls.bw_write::total            333493812                       # Write bandwidth from this memory (bytes/s)
system.mem_ctrls.bw_total::writebacks       333493812                       # Total bandwidth to/from this memory (bytes/s)
system.mem_ctrls.bw_total::cpu.inst         967857042                       # Total bandwidth to/from this memory (bytes/s)
system.mem_ctrls.bw_total::cpu.data        1011356235                       # Total bandwidth to/from this memory (bytes/s)
system.mem_ctrls.bw_total::total           2312707088                       # Total bandwidth to/from this memory (bytes/s)
system.mem_ctrls.readReqs                        1093                       # Number of read requests accepted
system.mem_ctrls.writeReqs                        184                       # Number of write requests accepted
system.mem_ctrls.readBursts                      1093                       # Number of DRAM read bursts, including those serviced by the write queue
system.mem_ctrls.writeBursts                      184                       # Number of DRAM write bursts, including those merged in the write queue
system.mem_ctrls.bytesReadDRAM                  61440                       # Total number of bytes read from DRAM
system.mem_ctrls.bytesReadWrQ                    8512                       # Total number of bytes read from write queue
system.mem_ctrls.bytesWritten                    6208                       # Total number of bytes written to DRAM
system.mem_ctrls.bytesReadSys                   69952                       # Total read bytes from the system interface side
system.mem_ctrls.bytesWrittenSys                11776                       # Total written bytes from the system interface side
system.mem_ctrls.servicedByWrQ                    133                       # Number of DRAM read bursts serviced by the write queue
system.mem_ctrls.mergedWrBursts                    57                       # Number of DRAM write bursts merged with an existing one
system.mem_ctrls.neitherReadNorWriteReqs            0                       # Number of requests that are neither read nor write
system.mem_ctrls.perBankRdBursts::0                85                       # Per bank write bursts
system.mem_ctrls.perBankRdBursts::1                 4                       # Per bank write bursts
system.mem_ctrls.perBankRdBursts::2                31                       # Per bank write bursts
system.mem_ctrls.perBankRdBursts::3                85                       # Per bank write bursts
system.mem_ctrls.perBankRdBursts::4               138                       # Per bank write bursts
system.mem_ctrls.perBankRdBursts::5                90                       # Per bank write bursts
system.mem_ctrls.perBankRdBursts::6               122                       # Per bank write bursts
system.mem_ctrls.perBankRdBursts::7                67                       # Per bank write bursts
system.mem_ctrls.perBankRdBursts::8                36                       # Per bank write bursts
system.mem_ctrls.perBankRdBursts::9                96                       # Per bank write bursts
system.mem_ctrls.perBankRdBursts::10               34                       # Per bank write bursts
system.mem_ctrls.perBankRdBursts::11               20                       # Per bank write bursts
system.mem_ctrls.perBankRdBursts::12               36                       # Per bank write bursts
system.mem_ctrls.perBankRdBursts::13               32                       # Per bank write bursts
system.mem_ctrls.perBankRdBursts::14               73                       # Per bank write bursts
system.mem_ctrls.perBankRdBursts::15               11                       # Per bank write bursts
system.mem_ctrls.perBankWrBursts::0                 0                       # Per bank write bursts
system.mem_ctrls.perBankWrBursts::1                 0                       # Per bank write bursts
system.mem_ctrls.perBankWrBursts::2                 0                       # Per bank write bursts
system.mem_ctrls.perBankWrBursts::3                 4                       # Per bank write bursts
system.mem_ctrls.perBankWrBursts::4                43                       # Per bank write bursts
system.mem_ctrls.perBankWrBursts::5                24                       # Per bank write bursts
system.mem_ctrls.perBankWrBursts::6                23                       # Per bank write bursts
system.mem_ctrls.perBankWrBursts::7                 2                       # Per bank write bursts
system.mem_ctrls.perBankWrBursts::8                 1                       # Per bank write bursts
system.mem_ctrls.perBankWrBursts::9                 0                       # Per bank write bursts
system.mem_ctrls.perBankWrBursts::10                0                       # Per bank write bursts
system.mem_ctrls.perBankWrBursts::11                0                       # Per bank write bursts
system.mem_ctrls.perBankWrBursts::12                0                       # Per bank write bursts
system.mem_ctrls.perBankWrBursts::13                0                       # Per bank write bursts
system.mem_ctrls.perBankWrBursts::14                0                       # Per bank write bursts
system.mem_ctrls.perBankWrBursts::15                0                       # Per bank write bursts
system.mem_ctrls.numRdRetry                         0                       # Number of times read queue was full causing retry
system.mem_ctrls.numWrRetry                         0                       # Number of times write queue was full causing retry
system.mem_ctrls.totGap                      35284500                       # Total gap between requests
system.mem_ctrls.readPktSize::0                     0                       # Read request sizes (log2)
system.mem_ctrls.readPktSize::1                     0                       # Read request sizes (log2)
system.mem_ctrls.readPktSize::2                     0                       # Read request sizes (log2)
system.mem_ctrls.readPktSize::3                     0                       # Read request sizes (log2)
system.mem_ctrls.readPktSize::4                     0                       # Read request sizes (log2)
system.mem_ctrls.readPktSize::5                     0                       # Read request sizes (log2)
system.mem_ctrls.readPktSize::6                  1093                       # Read request sizes (log2)
system.mem_ctrls.writePktSize::0                    0                       # Write request sizes (log2)
system.mem_ctrls.writePktSize::1                    0                       # Write request sizes (log2)
system.mem_ctrls.writePktSize::2                    0                       # Write request sizes (log2)
system.mem_ctrls.writePktSize::3                    0                       # Write request sizes (log2)
system.mem_ctrls.writePktSize::4                    0                       # Write request sizes (log2)
system.mem_ctrls.writePktSize::5                    0                       # Write request sizes (log2)
system.mem_ctrls.writePktSize::6                  184                       # Write request sizes (log2)
system.mem_ctrls.rdQLenPdf::0                     500                       # What read queue length does an incoming req see
system.mem_ctrls.rdQLenPdf::1                     307                       # What read queue length does an incoming req see
system.mem_ctrls.rdQLenPdf::2                     110                       # What read queue length does an incoming req see
system.mem_ctrls.rdQLenPdf::3                      35                       # What read queue length does an incoming req see
system.mem_ctrls.rdQLenPdf::4                       7                       # What read queue length does an incoming req see
system.mem_ctrls.rdQLenPdf::5                       1                       # What read queue length does an incoming req see
system.mem_ctrls.rdQLenPdf::6                       0                       # What read queue length does an incoming req see
system.mem_ctrls.rdQLenPdf::7                       0                       # What read queue length does an incoming req see
system.mem_ctrls.rdQLenPdf::8                       0                       # What read queue length does an incoming req see
system.mem_ctrls.rdQLenPdf::9                       0                       # What read queue length does an incoming req see
system.mem_ctrls.rdQLenPdf::10                      0                       # What read queue length does an incoming req see
system.mem_ctrls.rdQLenPdf::11                      0                       # What read queue length does an incoming req see
system.mem_ctrls.rdQLenPdf::12                      0                       # What read queue length does an incoming req see
system.mem_ctrls.rdQLenPdf::13                      0                       # What read queue length does an incoming req see
system.mem_ctrls.rdQLenPdf::14                      0                       # What read queue length does an incoming req see
system.mem_ctrls.rdQLenPdf::15                      0                       # What read queue length does an incoming req see
system.mem_ctrls.rdQLenPdf::16                      0                       # What read queue length does an incoming req see
system.mem_ctrls.rdQLenPdf::17                      0                       # What read queue length does an incoming req see
system.mem_ctrls.rdQLenPdf::18                      0                       # What read queue length does an incoming req see
system.mem_ctrls.rdQLenPdf::19                      0                       # What read queue length does an incoming req see
system.mem_ctrls.rdQLenPdf::20                      0                       # What read queue length does an incoming req see
system.mem_ctrls.rdQLenPdf::21                      0                       # What read queue length does an incoming req see
system.mem_ctrls.rdQLenPdf::22                      0                       # What read queue length does an incoming req see
system.mem_ctrls.rdQLenPdf::23                      0                       # What read queue length does an incoming req see
system.mem_ctrls.rdQLenPdf::24                      0                       # What read queue length does an incoming req see
system.mem_ctrls.rdQLenPdf::25                      0                       # What read queue length does an incoming req see
system.mem_ctrls.rdQLenPdf::26                      0                       # What read queue length does an incoming req see
system.mem_ctrls.rdQLenPdf::27                      0                       # What read queue length does an incoming req see
system.mem_ctrls.rdQLenPdf::28                      0                       # What read queue length does an incoming req see
system.mem_ctrls.rdQLenPdf::29                      0                       # What read queue length does an incoming req see
system.mem_ctrls.rdQLenPdf::30                      0                       # What read queue length does an incoming req see
system.mem_ctrls.rdQLenPdf::31                      0                       # What read queue length does an incoming req see
system.mem_ctrls.wrQLenPdf::0                       1                       # What write queue length does an incoming req see
system.mem_ctrls.wrQLenPdf::1                       1                       # What write queue length does an incoming req see
system.mem_ctrls.wrQLenPdf::2                       1                       # What write queue length does an incoming req see
system.mem_ctrls.wrQLenPdf::3                       1                       # What write queue length does an incoming req see
system.mem_ctrls.wrQLenPdf::4                       1                       # What write queue length does an incoming req see
system.mem_ctrls.wrQLenPdf::5                       1                       # What write queue length does an incoming req see
system.mem_ctrls.wrQLenPdf::6                       1                       # What write queue length does an incoming req see
system.mem_ctrls.wrQLenPdf::7                       1                       # What write queue length does an incoming req see
system.mem_ctrls.wrQLenPdf::8                       1                       # What write queue length does an incoming req see
system.mem_ctrls.wrQLenPdf::9                       1                       # What write queue length does an incoming req see
system.mem_ctrls.wrQLenPdf::10                      1                       # What write queue length does an incoming req see
system.mem_ctrls.wrQLenPdf::11                      1                       # What write queue length does an incoming req see
system.mem_ctrls.wrQLenPdf::12                      1                       # What write queue length does an incoming req see
system.mem_ctrls.wrQLenPdf::13                      1                       # What write queue length does an incoming req see
system.mem_ctrls.wrQLenPdf::14                      1                       # What write queue length does an incoming req see
system.mem_ctrls.wrQLenPdf::15                      1                       # What write queue length does an incoming req see
system.mem_ctrls.wrQLenPdf::16                      2                       # What write queue length does an incoming req see
system.mem_ctrls.wrQLenPdf::17                      6                       # What write queue length does an incoming req see
system.mem_ctrls.wrQLenPdf::18                      7                       # What write queue length does an incoming req see
system.mem_ctrls.wrQLenPdf::19                      7                       # What write queue length does an incoming req see
system.mem_ctrls.wrQLenPdf::20                      7                       # What write queue length does an incoming req see
system.mem_ctrls.wrQLenPdf::21                      7                       # What write queue length does an incoming req see
system.mem_ctrls.wrQLenPdf::22                      8                       # What write queue length does an incoming req see
system.mem_ctrls.wrQLenPdf::23                      7                       # What write queue length does an incoming req see
system.mem_ctrls.wrQLenPdf::24                      7                       # What write queue length does an incoming req see
system.mem_ctrls.wrQLenPdf::25                      7                       # What write queue length does an incoming req see
system.mem_ctrls.wrQLenPdf::26                      7                       # What write queue length does an incoming req see
system.mem_ctrls.wrQLenPdf::27                      7                       # What write queue length does an incoming req see
system.mem_ctrls.wrQLenPdf::28                      7                       # What write queue length does an incoming req see
system.mem_ctrls.wrQLenPdf::29                      7                       # What write queue length does an incoming req see
system.mem_ctrls.wrQLenPdf::30                      6                       # What write queue length does an incoming req see
system.mem_ctrls.wrQLenPdf::31                      6                       # What write queue length does an incoming req see
system.mem_ctrls.wrQLenPdf::32                      6                       # What write queue length does an incoming req see
system.mem_ctrls.wrQLenPdf::33                      0                       # What write queue length does an incoming req see
system.mem_ctrls.wrQLenPdf::34                      0                       # What write queue length does an incoming req see
system.mem_ctrls.wrQLenPdf::35                      0                       # What write queue length does an incoming req see
system.mem_ctrls.wrQLenPdf::36                      0                       # What write queue length does an incoming req see
system.mem_ctrls.wrQLenPdf::37                      0                       # What write queue length does an incoming req see
system.mem_ctrls.wrQLenPdf::38                      0                       # What write queue length does an incoming req see
system.mem_ctrls.wrQLenPdf::39                      0                       # What write queue length does an incoming req see
system.mem_ctrls.wrQLenPdf::40                      0                       # What write queue length does an incoming req see
system.mem_ctrls.wrQLenPdf::41                      0                       # What write queue length does an incoming req see
system.mem_ctrls.wrQLenPdf::42                      0                       # What write queue length does an incoming req see
system.mem_ctrls.wrQLenPdf::43                      0                       # What write queue length does an incoming req see
system.mem_ctrls.wrQLenPdf::44                      0                       # What write queue length does an incoming req see
system.mem_ctrls.wrQLenPdf::45                      0                       # What write queue length does an incoming req see
system.mem_ctrls.wrQLenPdf::46                      0                       # What write queue length does an incoming req see
system.mem_ctrls.wrQLenPdf::47                      0                       # What write queue length does an incoming req see
system.mem_ctrls.wrQLenPdf::48                      0                       # What write queue length does an incoming req see
system.mem_ctrls.wrQLenPdf::49                      0                       # What write queue length does an incoming req see
system.mem_ctrls.wrQLenPdf::50                      0                       # What write queue length does an incoming req see
system.mem_ctrls.wrQLenPdf::51                      0                       # What write queue length does an incoming req see
system.mem_ctrls.wrQLenPdf::52                      0                       # What write queue length does an incoming req see
system.mem_ctrls.wrQLenPdf::53                      0                       # What write queue length does an incoming req see
system.mem_ctrls.wrQLenPdf::54                      0                       # What write queue length does an incoming req see
system.mem_ctrls.wrQLenPdf::55                      0                       # What write queue length does an incoming req see
system.mem_ctrls.wrQLenPdf::56                      0                       # What write queue length does an incoming req see
system.mem_ctrls.wrQLenPdf::57                      0                       # What write queue length does an incoming req see
system.mem_ctrls.wrQLenPdf::58                      0                       # What write queue length does an incoming req see
system.mem_ctrls.wrQLenPdf::59                      0                       # What write queue length does an incoming req see
system.mem_ctrls.wrQLenPdf::60                      0                       # What write queue length does an incoming req see
system.mem_ctrls.wrQLenPdf::61                      0                       # What write queue length does an incoming req see
system.mem_ctrls.wrQLenPdf::62                      0                       # What write queue length does an incoming req see
system.mem_ctrls.wrQLenPdf::63                      0                       # What write queue length does an incoming req see
system.mem_ctrls.bytesPerActivate::samples          185                       # Bytes accessed per row activation
system.mem_ctrls.bytesPerActivate::mean    353.556757                       # Bytes accessed per row activation
system.mem_ctrls.bytesPerActivate::gmean   217.542568                       # Bytes accessed per row activation
system.mem_ctrls.bytesPerActivate::stdev   340.038358                       # Bytes accessed per row activation
system.mem_ctrls.bytesPerActivate::0-127           54     29.19%     29.19% # Bytes accessed per row activation
system.mem_ctrls.bytesPerActivate::128-255           45     24.32%     53.51% # Bytes accessed per row activation
system.mem_ctrls.bytesPerActivate::256-383           24     12.97%     66.49% # Bytes accessed per row activation
system.mem_ctrls.bytesPerActivate::384-511           12      6.49%     72.97% # Bytes accessed per row activation
system.mem_ctrls.bytesPerActivate::512-639           10      5.41%     78.38% # Bytes accessed per row activation
system.mem_ctrls.bytesPerActivate::640-767            5      2.70%     81.08% # Bytes accessed per row activation
system.mem_ctrls.bytesPerActivate::768-895            5      2.70%     83.78% # Bytes accessed per row activation
system.mem_ctrls.bytesPerActivate::896-1023            5      2.70%     86.49% # Bytes accessed per row activation
system.mem_ctrls.bytesPerActivate::1024-1151           25     13.51%    100.00% # Bytes accessed per row activation
system.mem_ctrls.bytesPerActivate::total          185                       # Bytes accessed per row activation
system.mem_ctrls.rdPerTurnAround::samples            6                       # Reads before turning the bus around for writes
system.mem_ctrls.rdPerTurnAround::mean     130.166667                       # Reads before turning the bus around for writes
system.mem_ctrls.rdPerTurnAround::gmean    124.412712                       # Reads before turning the bus around for writes
system.mem_ctrls.rdPerTurnAround::stdev     42.971696                       # Reads before turning the bus around for writes
system.mem_ctrls.rdPerTurnAround::80-87             1     16.67%     16.67% # Reads before turning the bus around for writes
system.mem_ctrls.rdPerTurnAround::88-95             1     16.67%     33.33% # Reads before turning the bus around for writes
system.mem_ctrls.rdPerTurnAround::112-119            1     16.67%     50.00% # Reads before turning the bus around for writes
system.mem_ctrls.rdPerTurnAround::128-135            1     16.67%     66.67% # Reads before turning the bus around for writes
system.mem_ctrls.rdPerTurnAround::160-167            1     16.67%     83.33% # Reads before turning the bus around for writes
system.mem_ctrls.rdPerTurnAround::192-199            1     16.67%    100.00% # Reads before turning the bus around for writes
system.mem_ctrls.rdPerTurnAround::total             6                       # Reads before turning the bus around for writes
system.mem_ctrls.wrPerTurnAround::samples            6                       # Writes before turning the bus around for reads
system.mem_ctrls.wrPerTurnAround::mean      16.166667                       # Writes before turning the bus around for reads
system.mem_ctrls.wrPerTurnAround::gmean     16.162485                       # Writes before turning the bus around for reads
system.mem_ctrls.wrPerTurnAround::stdev      0.408248                       # Writes before turning the bus around for reads
system.mem_ctrls.wrPerTurnAround::16                5     83.33%     83.33% # Writes before turning the bus around for reads
system.mem_ctrls.wrPerTurnAround::17                1     16.67%    100.00% # Writes before turning the bus around for reads
system.mem_ctrls.wrPerTurnAround::total             6                       # Writes before turning the bus around for reads
system.mem_ctrls.totQLat                     11014000                       # Total ticks spent queuing
system.mem_ctrls.totMemAccLat                29014000                       # Total ticks spent from burst creation until serviced by the DRAM
system.mem_ctrls.totBusLat                    4800000                       # Total ticks spent in databus transfers
system.mem_ctrls.avgQLat                     11472.92                       # Average queueing delay per DRAM burst
system.mem_ctrls.avgBusLat                    5000.00                       # Average bus latency per DRAM burst
system.mem_ctrls.avgMemAccLat                30222.92                       # Average memory access latency per DRAM burst
system.mem_ctrls.avgRdBW                      1739.97                       # Average DRAM read bandwidth in MiByte/s
system.mem_ctrls.avgWrBW                       175.81                       # Average achieved write bandwidth in MiByte/s
system.mem_ctrls.avgRdBWSys                   1981.03                       # Average system read bandwidth in MiByte/s
system.mem_ctrls.avgWrBWSys                    333.49                       # Average system write bandwidth in MiByte/s
system.mem_ctrls.peakBW                      12800.00                       # Theoretical peak bandwidth in MiByte/s
system.mem_ctrls.busUtil                        14.97                       # Data bus utilization in percentage
system.mem_ctrls.busUtilRead                    13.59                       # Data bus utilization in percentage for reads
system.mem_ctrls.busUtilWrite                    1.37                       # Data bus utilization in percentage for writes
system.mem_ctrls.avgRdQLen                       1.87                       # Average read queue length when enqueuing
system.mem_ctrls.avgWrQLen                      23.55                       # Average write queue length when enqueuing
system.mem_ctrls.readRowHits                      768                       # Number of row buffer hits during reads
system.mem_ctrls.writeRowHits                      93                       # Number of row buffer hits during writes
system.mem_ctrls.readRowHitRate                 80.00                       # Row buffer hit rate for reads
system.mem_ctrls.writeRowHitRate                73.23                       # Row buffer hit rate for writes
system.mem_ctrls.avgGap                      27630.78                       # Average gap between requests
system.mem_ctrls.pageHitRate                    79.21                       # Row buffer hit rate, read and write combined
system.mem_ctrls_0.actEnergy                   846720                       # Energy for activate commands per rank (pJ)
system.mem_ctrls_0.preEnergy                   462000                       # Energy for precharge commands per rank (pJ)
system.mem_ctrls_0.readEnergy                 4063800                       # Energy for read commands per rank (pJ)
system.mem_ctrls_0.writeEnergy                 622080                       # Energy for write commands per rank (pJ)
system.mem_ctrls_0.refreshEnergy              2034240                       # Energy for refresh commands per rank (pJ)
system.mem_ctrls_0.actBackEnergy             21220245                       # Energy for active background per rank (pJ)
system.mem_ctrls_0.preBackEnergy               243000                       # Energy for precharge background per rank (pJ)
system.mem_ctrls_0.totalEnergy               29492085                       # Total energy per rank (pJ)
system.mem_ctrls_0.averagePower            938.379191                       # Core power per rank (mW)
system.mem_ctrls_0.memoryStateTime::IDLE       307750                       # Time in different power states
system.mem_ctrls_0.memoryStateTime::REF       1040000                       # Time in different power states
system.mem_ctrls_0.memoryStateTime::PRE_PDN            0                       # Time in different power states
system.mem_ctrls_0.memoryStateTime::ACT      30094750                       # Time in different power states
system.mem_ctrls_0.memoryStateTime::ACT_PDN            0                       # Time in different power states
system.mem_ctrls_1.actEnergy                   446040                       # Energy for activate commands per rank (pJ)
system.mem_ctrls_1.preEnergy                   243375                       # Energy for precharge commands per rank (pJ)
system.mem_ctrls_1.readEnergy                 2550600                       # Energy for read commands per rank (pJ)
system.mem_ctrls_1.writeEnergy                   6480                       # Energy for write commands per rank (pJ)
system.mem_ctrls_1.refreshEnergy              2034240                       # Energy for refresh commands per rank (pJ)
system.mem_ctrls_1.actBackEnergy             21024450                       # Energy for active background per rank (pJ)
system.mem_ctrls_1.preBackEnergy               411000                       # Energy for precharge background per rank (pJ)
system.mem_ctrls_1.totalEnergy               26716185                       # Total energy per rank (pJ)
system.mem_ctrls_1.averagePower            850.224680                       # Core power per rank (mW)
system.mem_ctrls_1.memoryStateTime::IDLE       506000                       # Time in different power states
system.mem_ctrls_1.memoryStateTime::REF       1040000                       # Time in different power states
system.mem_ctrls_1.memoryStateTime::PRE_PDN            0                       # Time in different power states
system.mem_ctrls_1.memoryStateTime::ACT      29890250                       # Time in different power states
system.mem_ctrls_1.memoryStateTime::ACT_PDN            0                       # Time in different power states
system.cpu.branchPred.lookups                    5373                       # Number of BP lookups
system.cpu.branchPred.condPredicted              3565                       # Number of conditional branches predicted
system.cpu.branchPred.condIncorrect              1001                       # Number of conditional branches incorrect
system.cpu.branchPred.BTBLookups                 1549                       # Number of BTB lookups
system.cpu.branchPred.BTBHits                     917                       # Number of BTB hits
system.cpu.branchPred.BTBCorrect                    0                       # Number of correct BTB predictions (this stat may not work properly.
system.cpu.branchPred.BTBHitPct             59.199484                       # BTB Hit Percentage
system.cpu.branchPred.usedRAS                     529                       # Number of times the RAS was used to get a target.
system.cpu.branchPred.RASInCorrect                 45                       # Number of incorrect RAS predictions.
system.cpu_voltage_domain.voltage                   1                       # Voltage in Volts
system.cpu_clk_domain.clock                       500                       # Clock period in ticks
system.cpu.dstage2_mmu.stage2_tlb.walker.walks            0                       # Table walker walks requested
system.cpu.dstage2_mmu.stage2_tlb.walker.walkRequestOrigin_Requested::Data            0                       # Table walker requests started/completed, data/inst
system.cpu.dstage2_mmu.stage2_tlb.walker.walkRequestOrigin_Requested::Inst            0                       # Table walker requests started/completed, data/inst
system.cpu.dstage2_mmu.stage2_tlb.walker.walkRequestOrigin_Requested::total            0                       # Table walker requests started/completed, data/inst
system.cpu.dstage2_mmu.stage2_tlb.walker.walkRequestOrigin_Completed::Data            0                       # Table walker requests started/completed, data/inst
system.cpu.dstage2_mmu.stage2_tlb.walker.walkRequestOrigin_Completed::Inst            0                       # Table walker requests started/completed, data/inst
system.cpu.dstage2_mmu.stage2_tlb.walker.walkRequestOrigin_Completed::total            0                       # Table walker requests started/completed, data/inst
system.cpu.dstage2_mmu.stage2_tlb.walker.walkRequestOrigin::total            0                       # Table walker requests started/completed, data/inst
system.cpu.dstage2_mmu.stage2_tlb.inst_hits            0                       # ITB inst hits
system.cpu.dstage2_mmu.stage2_tlb.inst_misses            0                       # ITB inst misses
system.cpu.dstage2_mmu.stage2_tlb.read_hits            0                       # DTB read hits
system.cpu.dstage2_mmu.stage2_tlb.read_misses            0                       # DTB read misses
system.cpu.dstage2_mmu.stage2_tlb.write_hits            0                       # DTB write hits
system.cpu.dstage2_mmu.stage2_tlb.write_misses            0                       # DTB write misses
system.cpu.dstage2_mmu.stage2_tlb.flush_tlb            0                       # Number of times complete TLB was flushed
system.cpu.dstage2_mmu.stage2_tlb.flush_tlb_mva            0                       # Number of times TLB was flushed by MVA
system.cpu.dstage2_mmu.stage2_tlb.flush_tlb_mva_asid            0                       # Number of times TLB was flushed by MVA & ASID
system.cpu.dstage2_mmu.stage2_tlb.flush_tlb_asid            0                       # Number of times TLB was flushed by ASID
system.cpu.dstage2_mmu.stage2_tlb.flush_entries            0                       # Number of entries that have been flushed from TLB
system.cpu.dstage2_mmu.stage2_tlb.align_faults            0                       # Number of TLB faults due to alignment restrictions
system.cpu.dstage2_mmu.stage2_tlb.prefetch_faults            0                       # Number of TLB faults due to prefetch
system.cpu.dstage2_mmu.stage2_tlb.domain_faults            0                       # Number of TLB faults due to domain restrictions
system.cpu.dstage2_mmu.stage2_tlb.perms_faults            0                       # Number of TLB faults due to permissions restrictions
system.cpu.dstage2_mmu.stage2_tlb.read_accesses            0                       # DTB read accesses
system.cpu.dstage2_mmu.stage2_tlb.write_accesses            0                       # DTB write accesses
system.cpu.dstage2_mmu.stage2_tlb.inst_accesses            0                       # ITB inst accesses
system.cpu.dstage2_mmu.stage2_tlb.hits              0                       # DTB hits
system.cpu.dstage2_mmu.stage2_tlb.misses            0                       # DTB misses
system.cpu.dstage2_mmu.stage2_tlb.accesses            0                       # DTB accesses
system.cpu.dtb.walker.walks                         0                       # Table walker walks requested
system.cpu.dtb.walker.walkRequestOrigin_Requested::Data            0                       # Table walker requests started/completed, data/inst
system.cpu.dtb.walker.walkRequestOrigin_Requested::Inst            0                       # Table walker requests started/completed, data/inst
system.cpu.dtb.walker.walkRequestOrigin_Requested::total            0                       # Table walker requests started/completed, data/inst
system.cpu.dtb.walker.walkRequestOrigin_Completed::Data            0                       # Table walker requests started/completed, data/inst
system.cpu.dtb.walker.walkRequestOrigin_Completed::Inst            0                       # Table walker requests started/completed, data/inst
system.cpu.dtb.walker.walkRequestOrigin_Completed::total            0                       # Table walker requests started/completed, data/inst
system.cpu.dtb.walker.walkRequestOrigin::total            0                       # Table walker requests started/completed, data/inst
system.cpu.dtb.inst_hits                            0                       # ITB inst hits
system.cpu.dtb.inst_misses                          0                       # ITB inst misses
system.cpu.dtb.read_hits                            0                       # DTB read hits
system.cpu.dtb.read_misses                          0                       # DTB read misses
system.cpu.dtb.write_hits                           0                       # DTB write hits
system.cpu.dtb.write_misses                         0                       # DTB write misses
system.cpu.dtb.flush_tlb                            0                       # Number of times complete TLB was flushed
system.cpu.dtb.flush_tlb_mva                        0                       # Number of times TLB was flushed by MVA
system.cpu.dtb.flush_tlb_mva_asid                   0                       # Number of times TLB was flushed by MVA & ASID
system.cpu.dtb.flush_tlb_asid                       0                       # Number of times TLB was flushed by ASID
system.cpu.dtb.flush_entries                        0                       # Number of entries that have been flushed from TLB
system.cpu.dtb.align_faults                         0                       # Number of TLB faults due to alignment restrictions
system.cpu.dtb.prefetch_faults                      0                       # Number of TLB faults due to prefetch
system.cpu.dtb.domain_faults                        0                       # Number of TLB faults due to domain restrictions
system.cpu.dtb.perms_faults                         0                       # Number of TLB faults due to permissions restrictions
system.cpu.dtb.read_accesses                        0                       # DTB read accesses
system.cpu.dtb.write_accesses                       0                       # DTB write accesses
system.cpu.dtb.inst_accesses                        0                       # ITB inst accesses
system.cpu.dtb.hits                                 0                       # DTB hits
system.cpu.dtb.misses                               0                       # DTB misses
system.cpu.dtb.accesses                             0                       # DTB accesses
system.cpu.istage2_mmu.stage2_tlb.walker.walks            0                       # Table walker walks requested
system.cpu.istage2_mmu.stage2_tlb.walker.walkRequestOrigin_Requested::Data            0                       # Table walker requests started/completed, data/inst
system.cpu.istage2_mmu.stage2_tlb.walker.walkRequestOrigin_Requested::Inst            0                       # Table walker requests started/completed, data/inst
system.cpu.istage2_mmu.stage2_tlb.walker.walkRequestOrigin_Requested::total            0                       # Table walker requests started/completed, data/inst
system.cpu.istage2_mmu.stage2_tlb.walker.walkRequestOrigin_Completed::Data            0                       # Table walker requests started/completed, data/inst
system.cpu.istage2_mmu.stage2_tlb.walker.walkRequestOrigin_Completed::Inst            0                       # Table walker requests started/completed, data/inst
system.cpu.istage2_mmu.stage2_tlb.walker.walkRequestOrigin_Completed::total            0                       # Table walker requests started/completed, data/inst
system.cpu.istage2_mmu.stage2_tlb.walker.walkRequestOrigin::total            0                       # Table walker requests started/completed, data/inst
system.cpu.istage2_mmu.stage2_tlb.inst_hits            0                       # ITB inst hits
system.cpu.istage2_mmu.stage2_tlb.inst_misses            0                       # ITB inst misses
system.cpu.istage2_mmu.stage2_tlb.read_hits            0                       # DTB read hits
system.cpu.istage2_mmu.stage2_tlb.read_misses            0                       # DTB read misses
system.cpu.istage2_mmu.stage2_tlb.write_hits            0                       # DTB write hits
system.cpu.istage2_mmu.stage2_tlb.write_misses            0                       # DTB write misses
system.cpu.istage2_mmu.stage2_tlb.flush_tlb            0                       # Number of times complete TLB was flushed
system.cpu.istage2_mmu.stage2_tlb.flush_tlb_mva            0                       # Number of times TLB was flushed by MVA
system.cpu.istage2_mmu.stage2_tlb.flush_tlb_mva_asid            0                       # Number of times TLB was flushed by MVA & ASID
system.cpu.istage2_mmu.stage2_tlb.flush_tlb_asid            0                       # Number of times TLB was flushed by ASID
system.cpu.istage2_mmu.stage2_tlb.flush_entries            0                       # Number of entries that have been flushed from TLB
system.cpu.istage2_mmu.stage2_tlb.align_faults            0                       # Number of TLB faults due to alignment restrictions
system.cpu.istage2_mmu.stage2_tlb.prefetch_faults            0                       # Number of TLB faults due to prefetch
system.cpu.istage2_mmu.stage2_tlb.domain_faults            0                       # Number of TLB faults due to domain restrictions
system.cpu.istage2_mmu.stage2_tlb.perms_faults            0                       # Number of TLB faults due to permissions restrictions
system.cpu.istage2_mmu.stage2_tlb.read_accesses            0                       # DTB read accesses
system.cpu.istage2_mmu.stage2_tlb.write_accesses            0                       # DTB write accesses
system.cpu.istage2_mmu.stage2_tlb.inst_accesses            0                       # ITB inst accesses
system.cpu.istage2_mmu.stage2_tlb.hits              0                       # DTB hits
system.cpu.istage2_mmu.stage2_tlb.misses            0                       # DTB misses
system.cpu.istage2_mmu.stage2_tlb.accesses            0                       # DTB accesses
system.cpu.itb.walker.walks                         0                       # Table walker walks requested
system.cpu.itb.walker.walkRequestOrigin_Requested::Data            0                       # Table walker requests started/completed, data/inst
system.cpu.itb.walker.walkRequestOrigin_Requested::Inst            0                       # Table walker requests started/completed, data/inst
system.cpu.itb.walker.walkRequestOrigin_Requested::total            0                       # Table walker requests started/completed, data/inst
system.cpu.itb.walker.walkRequestOrigin_Completed::Data            0                       # Table walker requests started/completed, data/inst
system.cpu.itb.walker.walkRequestOrigin_Completed::Inst            0                       # Table walker requests started/completed, data/inst
system.cpu.itb.walker.walkRequestOrigin_Completed::total            0                       # Table walker requests started/completed, data/inst
system.cpu.itb.walker.walkRequestOrigin::total            0                       # Table walker requests started/completed, data/inst
system.cpu.itb.inst_hits                            0                       # ITB inst hits
system.cpu.itb.inst_misses                          0                       # ITB inst misses
system.cpu.itb.read_hits                            0                       # DTB read hits
system.cpu.itb.read_misses                          0                       # DTB read misses
system.cpu.itb.write_hits                           0                       # DTB write hits
system.cpu.itb.write_misses                         0                       # DTB write misses
system.cpu.itb.flush_tlb                            0                       # Number of times complete TLB was flushed
system.cpu.itb.flush_tlb_mva                        0                       # Number of times TLB was flushed by MVA
system.cpu.itb.flush_tlb_mva_asid                   0                       # Number of times TLB was flushed by MVA & ASID
system.cpu.itb.flush_tlb_asid                       0                       # Number of times TLB was flushed by ASID
system.cpu.itb.flush_entries                        0                       # Number of entries that have been flushed from TLB
system.cpu.itb.align_faults                         0                       # Number of TLB faults due to alignment restrictions
system.cpu.itb.prefetch_faults                      0                       # Number of TLB faults due to prefetch
system.cpu.itb.domain_faults                        0                       # Number of TLB faults due to domain restrictions
system.cpu.itb.perms_faults                         0                       # Number of TLB faults due to permissions restrictions
system.cpu.itb.read_accesses                        0                       # DTB read accesses
system.cpu.itb.write_accesses                       0                       # DTB write accesses
system.cpu.itb.inst_accesses                        0                       # ITB inst accesses
system.cpu.itb.hits                                 0                       # DTB hits
system.cpu.itb.misses                               0                       # DTB misses
system.cpu.itb.accesses                             0                       # DTB accesses
system.cpu.workload.num_syscalls                   12                       # Number of system calls
system.cpu.numCycles                            70623                       # number of cpu cycles simulated
system.cpu.numWorkItemsStarted                      0                       # number of work items this cpu started
system.cpu.numWorkItemsCompleted                    0                       # number of work items this cpu completed
system.cpu.fetch.icacheStallCycles              12223                       # Number of cycles fetch is stalled on an Icache miss
system.cpu.fetch.Insts                          27363                       # Number of instructions fetch has processed
system.cpu.fetch.Branches                        5373                       # Number of branches that fetch encountered
system.cpu.fetch.predictedBranches               1446                       # Number of branches that fetch has predicted taken
system.cpu.fetch.Cycles                         23672                       # Number of cycles fetch has run and was not squashing or blocked
system.cpu.fetch.SquashCycles                    2059                       # Number of cycles fetch has spent squashing
system.cpu.fetch.MiscStallCycles                  130                       # Number of cycles fetch has spent waiting on interrupts, or bad addresses, or out of MSHRs
system.cpu.fetch.PendingTrapStallCycles           285                       # Number of stall cycles due to pending traps
system.cpu.fetch.IcacheWaitRetryStallCycles          655                       # Number of stall cycles due to full MSHR
system.cpu.fetch.CacheLines                      8872                       # Number of cache lines fetched
system.cpu.fetch.IcacheSquashes                   348                       # Number of outstanding Icache misses that were squashed
system.cpu.fetch.rateDist::samples              37994                       # Number of instructions fetched each cycle (Total)
system.cpu.fetch.rateDist::mean              0.835263                       # Number of instructions fetched each cycle (Total)
system.cpu.fetch.rateDist::stdev             1.195495                       # Number of instructions fetched each cycle (Total)
system.cpu.fetch.rateDist::underflows               0      0.00%      0.00% # Number of instructions fetched each cycle (Total)
system.cpu.fetch.rateDist::0                    23096     60.79%     60.79% # Number of instructions fetched each cycle (Total)
system.cpu.fetch.rateDist::1                     5760     15.16%     75.95% # Number of instructions fetched each cycle (Total)
system.cpu.fetch.rateDist::2                     1439      3.79%     79.74% # Number of instructions fetched each cycle (Total)
system.cpu.fetch.rateDist::3                     7699     20.26%    100.00% # Number of instructions fetched each cycle (Total)
system.cpu.fetch.rateDist::overflows                0      0.00%    100.00% # Number of instructions fetched each cycle (Total)
system.cpu.fetch.rateDist::min_value                0                       # Number of instructions fetched each cycle (Total)
system.cpu.fetch.rateDist::max_value                3                       # Number of instructions fetched each cycle (Total)
system.cpu.fetch.rateDist::total                37994                       # Number of instructions fetched each cycle (Total)
system.cpu.fetch.branchRate                  0.076080                       # Number of branch fetches per cycle
system.cpu.fetch.rate                        0.387452                       # Number of inst fetches per cycle
system.cpu.decode.IdleCycles                    11795                       # Number of cycles decode is idle
system.cpu.decode.BlockedCycles                 13832                       # Number of cycles decode is blocked
system.cpu.decode.RunCycles                     11160                       # Number of cycles decode is running
system.cpu.decode.UnblockCycles                   447                       # Number of cycles decode is unblocking
system.cpu.decode.SquashCycles                    760                       # Number of cycles decode is squashing
system.cpu.decode.BranchResolved                  676                       # Number of times decode resolved a branch
system.cpu.decode.BranchMispred                   289                       # Number of times decode detected a branch misprediction
system.cpu.decode.DecodedInsts                  23134                       # Number of instructions handled by decode
system.cpu.decode.SquashedInsts                  2967                       # Number of squashed instructions handled by decode
system.cpu.rename.SquashCycles                    760                       # Number of cycles rename is squashing
system.cpu.rename.IdleCycles                    14031                       # Number of cycles rename is idle
system.cpu.rename.BlockCycles                    7997                       # Number of cycles rename is blocking
system.cpu.rename.serializeStallCycles           2994                       # count of cycles rename stalled for serializing inst
system.cpu.rename.RunCycles                      9289                       # Number of cycles rename is running
system.cpu.rename.UnblockCycles                  2923                       # Number of cycles rename is unblocking
system.cpu.rename.RenamedInsts                  20842                       # Number of instructions processed by rename
system.cpu.rename.SquashedInsts                   872                       # Number of squashed instructions processed by rename
system.cpu.rename.ROBFullEvents                   312                       # Number of times rename has blocked due to ROB full
system.cpu.rename.IQFullEvents                     20                       # Number of times rename has blocked due to IQ full
system.cpu.rename.LQFullEvents                     88                       # Number of times rename has blocked due to LQ full
system.cpu.rename.SQFullEvents                   2397                       # Number of times rename has blocked due to SQ full
system.cpu.rename.RenamedOperands               22076                       # Number of destination operands rename has renamed
system.cpu.rename.RenameLookups                 95332                       # Number of register rename lookups that rename has made
system.cpu.rename.int_rename_lookups            24152                       # Number of integer rename lookups
system.cpu.rename.fp_rename_lookups                16                       # Number of floating rename lookups
system.cpu.rename.CommittedMaps                 13027                       # Number of HB maps that are committed
system.cpu.rename.UndoneMaps                     9049                       # Number of HB maps that are undone due to squashing
system.cpu.rename.serializingInsts                 48                       # count of serializing insts renamed
system.cpu.rename.tempSerializingInsts             48                       # count of temporary serializing insts renamed
system.cpu.rename.skidInsts                      1340                       # count of insts added to the skid buffer
system.cpu.memDep0.insertedLoads                 3983                       # Number of loads inserted to the mem dependence unit.
system.cpu.memDep0.insertedStores                2967                       # Number of stores inserted to the mem dependence unit.
system.cpu.memDep0.conflictingLoads                49                       # Number of conflicting loads.
system.cpu.memDep0.conflictingStores                0                       # Number of conflicting stores.
system.cpu.iq.iqInstsAdded                      19754                       # Number of instructions added to the IQ (excludes non-spec)
system.cpu.iq.iqNonSpecInstsAdded                  73                       # Number of non-speculative instructions added to the IQ
system.cpu.iq.iqInstsIssued                     16928                       # Number of instructions issued
system.cpu.iq.iqSquashedInstsIssued               357                       # Number of squashed instructions issued
system.cpu.iq.iqSquashedInstsExamined            7217                       # Number of squashed instructions iterated over during squash; mainly for profiling
system.cpu.iq.iqSquashedOperandsExamined        18448                       # Number of squashed operands that are examined and possibly removed from graph
system.cpu.iq.iqSquashedNonSpecRemoved              9                       # Number of squashed non-spec instructions that were removed
system.cpu.iq.issued_per_cycle::samples         37994                       # Number of insts issued each cycle
system.cpu.iq.issued_per_cycle::mean         0.445544                       # Number of insts issued each cycle
system.cpu.iq.issued_per_cycle::stdev        0.837206                       # Number of insts issued each cycle
system.cpu.iq.issued_per_cycle::underflows            0      0.00%      0.00% # Number of insts issued each cycle
system.cpu.iq.issued_per_cycle::0               27961     73.59%     73.59% # Number of insts issued each cycle
system.cpu.iq.issued_per_cycle::1                4780     12.58%     86.17% # Number of insts issued each cycle
system.cpu.iq.issued_per_cycle::2                3696      9.73%     95.90% # Number of insts issued each cycle
system.cpu.iq.issued_per_cycle::3                1472      3.87%     99.78% # Number of insts issued each cycle
system.cpu.iq.issued_per_cycle::4                  85      0.22%    100.00% # Number of insts issued each cycle
system.cpu.iq.issued_per_cycle::5                   0      0.00%    100.00% # Number of insts issued each cycle
system.cpu.iq.issued_per_cycle::6                   0      0.00%    100.00% # Number of insts issued each cycle
system.cpu.iq.issued_per_cycle::7                   0      0.00%    100.00% # Number of insts issued each cycle
system.cpu.iq.issued_per_cycle::8                   0      0.00%    100.00% # Number of insts issued each cycle
system.cpu.iq.issued_per_cycle::overflows            0      0.00%    100.00% # Number of insts issued each cycle
system.cpu.iq.issued_per_cycle::min_value            0                       # Number of insts issued each cycle
system.cpu.iq.issued_per_cycle::max_value            4                       # Number of insts issued each cycle
system.cpu.iq.issued_per_cycle::total           37994                       # Number of insts issued each cycle
system.cpu.iq.fu_full::No_OpClass                   0      0.00%      0.00% # attempts to use FU when none available
system.cpu.iq.fu_full::IntAlu                    1013     32.03%     32.03% # attempts to use FU when none available
system.cpu.iq.fu_full::IntMult                      0      0.00%     32.03% # attempts to use FU when none available
system.cpu.iq.fu_full::IntDiv                       0      0.00%     32.03% # attempts to use FU when none available
system.cpu.iq.fu_full::FloatAdd                     0      0.00%     32.03% # attempts to use FU when none available
system.cpu.iq.fu_full::FloatCmp                     0      0.00%     32.03% # attempts to use FU when none available
system.cpu.iq.fu_full::FloatCvt                     0      0.00%     32.03% # attempts to use FU when none available
system.cpu.iq.fu_full::FloatMult                    0      0.00%     32.03% # attempts to use FU when none available
system.cpu.iq.fu_full::FloatDiv                     0      0.00%     32.03% # attempts to use FU when none available
system.cpu.iq.fu_full::FloatSqrt                    0      0.00%     32.03% # attempts to use FU when none available
system.cpu.iq.fu_full::SimdAdd                      0      0.00%     32.03% # attempts to use FU when none available
system.cpu.iq.fu_full::SimdAddAcc                   0      0.00%     32.03% # attempts to use FU when none available
system.cpu.iq.fu_full::SimdAlu                      0      0.00%     32.03% # attempts to use FU when none available
system.cpu.iq.fu_full::SimdCmp                      0      0.00%     32.03% # attempts to use FU when none available
system.cpu.iq.fu_full::SimdCvt                      0      0.00%     32.03% # attempts to use FU when none available
system.cpu.iq.fu_full::SimdMisc                     0      0.00%     32.03% # attempts to use FU when none available
system.cpu.iq.fu_full::SimdMult                     0      0.00%     32.03% # attempts to use FU when none available
system.cpu.iq.fu_full::SimdMultAcc                  0      0.00%     32.03% # attempts to use FU when none available
system.cpu.iq.fu_full::SimdShift                    0      0.00%     32.03% # attempts to use FU when none available
system.cpu.iq.fu_full::SimdShiftAcc                 0      0.00%     32.03% # attempts to use FU when none available
system.cpu.iq.fu_full::SimdSqrt                     0      0.00%     32.03% # attempts to use FU when none available
system.cpu.iq.fu_full::SimdFloatAdd                 0      0.00%     32.03% # attempts to use FU when none available
system.cpu.iq.fu_full::SimdFloatAlu                 0      0.00%     32.03% # attempts to use FU when none available
system.cpu.iq.fu_full::SimdFloatCmp                 0      0.00%     32.03% # attempts to use FU when none available
system.cpu.iq.fu_full::SimdFloatCvt                 0      0.00%     32.03% # attempts to use FU when none available
system.cpu.iq.fu_full::SimdFloatDiv                 0      0.00%     32.03% # attempts to use FU when none available
system.cpu.iq.fu_full::SimdFloatMisc                0      0.00%     32.03% # attempts to use FU when none available
system.cpu.iq.fu_full::SimdFloatMult                0      0.00%     32.03% # attempts to use FU when none available
system.cpu.iq.fu_full::SimdFloatMultAcc             0      0.00%     32.03% # attempts to use FU when none available
system.cpu.iq.fu_full::SimdFloatSqrt                0      0.00%     32.03% # attempts to use FU when none available
system.cpu.iq.fu_full::MemRead                    990     31.30%     63.33% # attempts to use FU when none available
system.cpu.iq.fu_full::MemWrite                  1160     36.67%    100.00% # attempts to use FU when none available
system.cpu.iq.fu_full::IprAccess                    0      0.00%    100.00% # attempts to use FU when none available
system.cpu.iq.fu_full::InstPrefetch                 0      0.00%    100.00% # attempts to use FU when none available
system.cpu.iq.FU_type_0::No_OpClass                 0      0.00%      0.00% # Type of FU issued
system.cpu.iq.FU_type_0::IntAlu                 10880     64.27%     64.27% # Type of FU issued
system.cpu.iq.FU_type_0::IntMult                    5      0.03%     64.30% # Type of FU issued
system.cpu.iq.FU_type_0::IntDiv                     0      0.00%     64.30% # Type of FU issued
system.cpu.iq.FU_type_0::FloatAdd                   0      0.00%     64.30% # Type of FU issued
system.cpu.iq.FU_type_0::FloatCmp                   0      0.00%     64.30% # Type of FU issued
system.cpu.iq.FU_type_0::FloatCvt                   0      0.00%     64.30% # Type of FU issued
system.cpu.iq.FU_type_0::FloatMult                  0      0.00%     64.30% # Type of FU issued
system.cpu.iq.FU_type_0::FloatDiv                   0      0.00%     64.30% # Type of FU issued
system.cpu.iq.FU_type_0::FloatSqrt                  0      0.00%     64.30% # Type of FU issued
system.cpu.iq.FU_type_0::SimdAdd                    0      0.00%     64.30% # Type of FU issued
system.cpu.iq.FU_type_0::SimdAddAcc                 0      0.00%     64.30% # Type of FU issued
system.cpu.iq.FU_type_0::SimdAlu                    0      0.00%     64.30% # Type of FU issued
system.cpu.iq.FU_type_0::SimdCmp                    0      0.00%     64.30% # Type of FU issued
system.cpu.iq.FU_type_0::SimdCvt                    0      0.00%     64.30% # Type of FU issued
system.cpu.iq.FU_type_0::SimdMisc                   0      0.00%     64.30% # Type of FU issued
system.cpu.iq.FU_type_0::SimdMult                   0      0.00%     64.30% # Type of FU issued
system.cpu.iq.FU_type_0::SimdMultAcc                0      0.00%     64.30% # Type of FU issued
system.cpu.iq.FU_type_0::SimdShift                  0      0.00%     64.30% # Type of FU issued
system.cpu.iq.FU_type_0::SimdShiftAcc               0      0.00%     64.30% # Type of FU issued
system.cpu.iq.FU_type_0::SimdSqrt                   0      0.00%     64.30% # Type of FU issued
system.cpu.iq.FU_type_0::SimdFloatAdd               0      0.00%     64.30% # Type of FU issued
system.cpu.iq.FU_type_0::SimdFloatAlu               0      0.00%     64.30% # Type of FU issued
system.cpu.iq.FU_type_0::SimdFloatCmp               0      0.00%     64.30% # Type of FU issued
system.cpu.iq.FU_type_0::SimdFloatCvt               0      0.00%     64.30% # Type of FU issued
system.cpu.iq.FU_type_0::SimdFloatDiv               0      0.00%     64.30% # Type of FU issued
system.cpu.iq.FU_type_0::SimdFloatMisc              0      0.00%     64.30% # Type of FU issued
system.cpu.iq.FU_type_0::SimdFloatMult              0      0.00%     64.30% # Type of FU issued
system.cpu.iq.FU_type_0::SimdFloatMultAcc            0      0.00%     64.30% # Type of FU issued
system.cpu.iq.FU_type_0::SimdFloatSqrt              0      0.00%     64.30% # Type of FU issued
system.cpu.iq.FU_type_0::MemRead                 3462     20.45%     84.75% # Type of FU issued
system.cpu.iq.FU_type_0::MemWrite                2581     15.25%    100.00% # Type of FU issued
system.cpu.iq.FU_type_0::IprAccess                  0      0.00%    100.00% # Type of FU issued
system.cpu.iq.FU_type_0::InstPrefetch               0      0.00%    100.00% # Type of FU issued
system.cpu.iq.FU_type_0::total                  16928                       # Type of FU issued
system.cpu.iq.rate                           0.239695                       # Inst issue rate
system.cpu.iq.fu_busy_cnt                        3163                       # FU busy when requested
system.cpu.iq.fu_busy_rate                   0.186850                       # FU busy rate (busy events/executed inst)
system.cpu.iq.int_inst_queue_reads              75326                       # Number of integer instruction queue reads
system.cpu.iq.int_inst_queue_writes             27047                       # Number of integer instruction queue writes
system.cpu.iq.int_inst_queue_wakeup_accesses        15488                       # Number of integer instruction queue wakeup accesses
system.cpu.iq.fp_inst_queue_reads                  44                       # Number of floating instruction queue reads
system.cpu.iq.fp_inst_queue_writes                 16                       # Number of floating instruction queue writes
system.cpu.iq.fp_inst_queue_wakeup_accesses           16                       # Number of floating instruction queue wakeup accesses
system.cpu.iq.int_alu_accesses                  20063                       # Number of integer alu accesses
system.cpu.iq.fp_alu_accesses                      28                       # Number of floating point alu accesses
system.cpu.iew.lsq.thread0.forwLoads               18                       # Number of loads that had data forwarded from stores
system.cpu.iew.lsq.thread0.invAddrLoads             0                       # Number of loads ignored due to an invalid address
system.cpu.iew.lsq.thread0.squashedLoads         1765                       # Number of loads squashed
system.cpu.iew.lsq.thread0.ignoredResponses            1                       # Number of memory responses ignored because the instruction is squashed
system.cpu.iew.lsq.thread0.memOrderViolation           19                       # Number of memory ordering violations
system.cpu.iew.lsq.thread0.squashedStores          878                       # Number of stores squashed
system.cpu.iew.lsq.thread0.invAddrSwpfs             0                       # Number of software prefetches ignored due to an invalid address
system.cpu.iew.lsq.thread0.blockedLoads             0                       # Number of blocked loads due to partial load-store forwarding
system.cpu.iew.lsq.thread0.rescheduledLoads           31                       # Number of loads that were rescheduled
system.cpu.iew.lsq.thread0.cacheBlocked            56                       # Number of times an access to memory failed due to the cache being blocked
system.cpu.iew.iewIdleCycles                        0                       # Number of cycles IEW is idle
system.cpu.iew.iewSquashCycles                    760                       # Number of cycles IEW is squashing
system.cpu.iew.iewBlockCycles                    1466                       # Number of cycles IEW is blocking
system.cpu.iew.iewUnblockCycles                   265                       # Number of cycles IEW is unblocking
system.cpu.iew.iewDispatchedInsts               19834                       # Number of instructions dispatched to IQ
system.cpu.iew.iewDispSquashedInsts                 0                       # Number of squashed instructions skipped by dispatch
system.cpu.iew.iewDispLoadInsts                  3983                       # Number of dispatched load instructions
system.cpu.iew.iewDispStoreInsts                 2967                       # Number of dispatched store instructions
system.cpu.iew.iewDispNonSpecInsts                 47                       # Number of dispatched non-speculative instructions
system.cpu.iew.iewIQFullEvents                     12                       # Number of times the IQ has become full, causing a stall
system.cpu.iew.iewLSQFullEvents                   251                       # Number of times the LSQ has become full, causing a stall
system.cpu.iew.memOrderViolationEvents             19                       # Number of memory order violations
system.cpu.iew.predictedTakenIncorrect             73                       # Number of branches that were predicted taken incorrectly
system.cpu.iew.predictedNotTakenIncorrect          692                       # Number of branches that were predicted not taken incorrectly
system.cpu.iew.branchMispredicts                  765                       # Number of branch mispredicts detected at execute
system.cpu.iew.iewExecutedInsts                 15938                       # Number of executed instructions
system.cpu.iew.iewExecLoadInsts                  3019                       # Number of load instructions executed
system.cpu.iew.iewExecSquashedInsts               990                       # Number of squashed instructions skipped in execute
system.cpu.iew.exec_swp                             0                       # number of swp insts executed
system.cpu.iew.exec_nop                             7                       # number of nop insts executed
system.cpu.iew.exec_refs                         5487                       # number of memory reference insts executed
system.cpu.iew.exec_branches                     2738                       # Number of branches executed
system.cpu.iew.exec_stores                       2468                       # Number of stores executed
system.cpu.iew.exec_rate                     0.225677                       # Inst execution rate
system.cpu.iew.wb_sent                          15575                       # cumulative count of insts sent to commit
system.cpu.iew.wb_count                         15504                       # cumulative count of insts written-back
system.cpu.iew.wb_producers                      7738                       # num instructions producing a value
system.cpu.iew.wb_consumers                     12714                       # num instructions consuming a value
system.cpu.iew.wb_penalized                         0                       # number of instrctions required to write to 'other' IQ
system.cpu.iew.wb_rate                       0.219532                       # insts written-back per cycle
system.cpu.iew.wb_fanout                     0.608620                       # average fanout of values written-back
system.cpu.iew.wb_penalized_rate                    0                       # fraction of instructions written-back that wrote to 'other' IQ
system.cpu.commit.commitSquashedInsts            6197                       # The number of squashed insts skipped by commit
system.cpu.commit.commitNonSpecStalls              64                       # The number of times commit has been forced to stall to communicate backwards
system.cpu.commit.branchMispredicts               732                       # The number of times a branch was mispredicted
system.cpu.commit.committed_per_cycle::samples        36771                       # Number of insts commited each cycle
system.cpu.commit.committed_per_cycle::mean     0.342933                       # Number of insts commited each cycle
system.cpu.commit.committed_per_cycle::stdev     1.036899                       # Number of insts commited each cycle
system.cpu.commit.committed_per_cycle::underflows            0      0.00%      0.00% # Number of insts commited each cycle
system.cpu.commit.committed_per_cycle::0        30870     83.95%     83.95% # Number of insts commited each cycle
system.cpu.commit.committed_per_cycle::1         3024      8.22%     92.18% # Number of insts commited each cycle
system.cpu.commit.committed_per_cycle::2         1306      3.55%     95.73% # Number of insts commited each cycle
system.cpu.commit.committed_per_cycle::3          635      1.73%     97.45% # Number of insts commited each cycle
system.cpu.commit.committed_per_cycle::4          438      1.19%     98.65% # Number of insts commited each cycle
system.cpu.commit.committed_per_cycle::5          141      0.38%     99.03% # Number of insts commited each cycle
system.cpu.commit.committed_per_cycle::6           87      0.24%     99.27% # Number of insts commited each cycle
system.cpu.commit.committed_per_cycle::7           70      0.19%     99.46% # Number of insts commited each cycle
system.cpu.commit.committed_per_cycle::8          200      0.54%    100.00% # Number of insts commited each cycle
system.cpu.commit.committed_per_cycle::overflows            0      0.00%    100.00% # Number of insts commited each cycle
system.cpu.commit.committed_per_cycle::min_value            0                       # Number of insts commited each cycle
system.cpu.commit.committed_per_cycle::max_value            8                       # Number of insts commited each cycle
system.cpu.commit.committed_per_cycle::total        36771                       # Number of insts commited each cycle
system.cpu.commit.committedInsts                10777                       # Number of instructions committed
system.cpu.commit.committedOps                  12610                       # Number of ops (including micro ops) committed
system.cpu.commit.swp_count                         0                       # Number of s/w prefetches committed
system.cpu.commit.refs                           4307                       # Number of memory references committed
system.cpu.commit.loads                          2218                       # Number of loads committed
system.cpu.commit.membars                          26                       # Number of memory barriers committed
system.cpu.commit.branches                       2195                       # Number of branches committed
system.cpu.commit.fp_insts                         16                       # Number of committed floating point instructions.
system.cpu.commit.int_insts                     10933                       # Number of committed integer instructions.
system.cpu.commit.function_calls                  202                       # Number of function calls committed.
system.cpu.commit.op_class_0::No_OpClass            0      0.00%      0.00% # Class of committed instruction
system.cpu.commit.op_class_0::IntAlu             8298     65.80%     65.80% # Class of committed instruction
system.cpu.commit.op_class_0::IntMult               5      0.04%     65.84% # Class of committed instruction
system.cpu.commit.op_class_0::IntDiv                0      0.00%     65.84% # Class of committed instruction
system.cpu.commit.op_class_0::FloatAdd              0      0.00%     65.84% # Class of committed instruction
system.cpu.commit.op_class_0::FloatCmp              0      0.00%     65.84% # Class of committed instruction
system.cpu.commit.op_class_0::FloatCvt              0      0.00%     65.84% # Class of committed instruction
system.cpu.commit.op_class_0::FloatMult             0      0.00%     65.84% # Class of committed instruction
system.cpu.commit.op_class_0::FloatDiv              0      0.00%     65.84% # Class of committed instruction
system.cpu.commit.op_class_0::FloatSqrt             0      0.00%     65.84% # Class of committed instruction
system.cpu.commit.op_class_0::SimdAdd               0      0.00%     65.84% # Class of committed instruction
system.cpu.commit.op_class_0::SimdAddAcc            0      0.00%     65.84% # Class of committed instruction
system.cpu.commit.op_class_0::SimdAlu               0      0.00%     65.84% # Class of committed instruction
system.cpu.commit.op_class_0::SimdCmp               0      0.00%     65.84% # Class of committed instruction
system.cpu.commit.op_class_0::SimdCvt               0      0.00%     65.84% # Class of committed instruction
system.cpu.commit.op_class_0::SimdMisc              0      0.00%     65.84% # Class of committed instruction
system.cpu.commit.op_class_0::SimdMult              0      0.00%     65.84% # Class of committed instruction
system.cpu.commit.op_class_0::SimdMultAcc            0      0.00%     65.84% # Class of committed instruction
system.cpu.commit.op_class_0::SimdShift             0      0.00%     65.84% # Class of committed instruction
system.cpu.commit.op_class_0::SimdShiftAcc            0      0.00%     65.84% # Class of committed instruction
system.cpu.commit.op_class_0::SimdSqrt              0      0.00%     65.84% # Class of committed instruction
system.cpu.commit.op_class_0::SimdFloatAdd            0      0.00%     65.84% # Class of committed instruction
system.cpu.commit.op_class_0::SimdFloatAlu            0      0.00%     65.84% # Class of committed instruction
system.cpu.commit.op_class_0::SimdFloatCmp            0      0.00%     65.84% # Class of committed instruction
system.cpu.commit.op_class_0::SimdFloatCvt            0      0.00%     65.84% # Class of committed instruction
system.cpu.commit.op_class_0::SimdFloatDiv            0      0.00%     65.84% # Class of committed instruction
system.cpu.commit.op_class_0::SimdFloatMisc            0      0.00%     65.84% # Class of committed instruction
system.cpu.commit.op_class_0::SimdFloatMult            0      0.00%     65.84% # Class of committed instruction
system.cpu.commit.op_class_0::SimdFloatMultAcc            0      0.00%     65.84% # Class of committed instruction
system.cpu.commit.op_class_0::SimdFloatSqrt            0      0.00%     65.84% # Class of committed instruction
system.cpu.commit.op_class_0::MemRead            2218     17.59%     83.43% # Class of committed instruction
system.cpu.commit.op_class_0::MemWrite           2089     16.57%    100.00% # Class of committed instruction
system.cpu.commit.op_class_0::IprAccess             0      0.00%    100.00% # Class of committed instruction
system.cpu.commit.op_class_0::InstPrefetch            0      0.00%    100.00% # Class of committed instruction
system.cpu.commit.op_class_0::total             12610                       # Class of committed instruction
system.cpu.commit.bw_lim_events                   200                       # number cycles where commit BW limit reached
system.cpu.rob.rob_reads                        55235                       # The number of ROB reads
system.cpu.rob.rob_writes                       38840                       # The number of ROB writes
system.cpu.timesIdled                             460                       # Number of times that the entire CPU went into an idle state and unscheduled itself
[...]
system.cpu.dcache.blocked::no_mshrs                 0                       # number of cycles access was blocked
system.cpu.dcache.blocked::no_targets              38                       # number of cycles access was blocked
system.cpu.dcache.avg_blocked_cycles::no_mshrs          nan                       # average number of cycles each access was blocked
system.cpu.dcache.avg_blocked_cycles::no_targets    67.657895                       # average number of cycles each access was blocked
system.cpu.dcache.fast_writes                       0                       # number of fast writes performed
system.cpu.dcache.cache_copies                      0                       # number of cache copies performed
system.cpu.dcache.writebacks::writebacks          184                       # number of writebacks
system.cpu.dcache.writebacks::total               184                       # number of writebacks
system.cpu.dcache.ReadReq_mshr_hits::cpu.data          230                       # number of ReadReq MSHR hits
system.cpu.dcache.ReadReq_mshr_hits::total          230                       # number of ReadReq MSHR hits
system.cpu.dcache.WriteReq_mshr_hits::cpu.data          317                       # number of WriteReq MSHR hits
system.cpu.dcache.WriteReq_mshr_hits::total          317                       # number of WriteReq MSHR hits
system.cpu.dcache.LoadLockedReq_mshr_hits::cpu.data            4                       # number of LoadLockedReq MSHR hits
system.cpu.dcache.LoadLockedReq_mshr_hits::total            4                       # number of LoadLockedReq MSHR hits
system.cpu.dcache.demand_mshr_hits::cpu.data          547                       # number of demand (read+write) MSHR hits
system.cpu.dcache.demand_mshr_hits::total          547                       # number of demand (read+write) MSHR hits
system.cpu.dcache.overall_mshr_hits::cpu.data          547                       # number of overall MSHR hits
system.cpu.dcache.overall_mshr_hits::total          547                       # number of overall MSHR hits
system.cpu.dcache.ReadReq_mshr_misses::cpu.data          441                       # number of ReadReq MSHR misses
system.cpu.dcache.ReadReq_mshr_misses::total          441                       # number of ReadReq MSHR misses
system.cpu.dcache.WriteReq_mshr_misses::cpu.data          117                       # number of WriteReq MSHR misses
system.cpu.dcache.WriteReq_mshr_misses::total          117                       # number of WriteReq MSHR misses
system.cpu.dcache.demand_mshr_misses::cpu.data          558                       # number of demand (read+write) MSHR misses
system.cpu.dcache.demand_mshr_misses::total          558                       # number of demand (read+write) MSHR misses
system.cpu.dcache.overall_mshr_misses::cpu.data          558                       # number of overall MSHR misses
system.cpu.dcache.overall_mshr_misses::total          558                       # number of overall MSHR misses
system.cpu.dcache.ReadReq_mshr_miss_latency::cpu.data     23142250                       # number of ReadReq MSHR miss cycles
system.cpu.dcache.ReadReq_mshr_miss_latency::total     23142250                       # number of ReadReq MSHR miss cycles
system.cpu.dcache.WriteReq_mshr_miss_latency::cpu.data      5651750                       # number of WriteReq MSHR miss cycles
system.cpu.dcache.WriteReq_mshr_miss_latency::total      5651750                       # number of WriteReq MSHR miss cycles
system.cpu.dcache.demand_mshr_miss_latency::cpu.data     28794000                       # number of demand (read+write) MSHR miss cycles
system.cpu.dcache.demand_mshr_miss_latency::total     28794000                       # number of demand (read+write) MSHR miss cycles
system.cpu.dcache.overall_mshr_miss_latency::cpu.data     28794000                       # number of overall MSHR miss cycles
system.cpu.dcache.overall_mshr_miss_latency::total     28794000                       # number of overall MSHR miss cycles
system.cpu.dcache.ReadReq_mshr_miss_rate::cpu.data     0.157163                       # mshr miss rate for ReadReq accesses
system.cpu.dcache.ReadReq_mshr_miss_rate::total     0.157163                       # mshr miss rate for ReadReq accesses
system.cpu.dcache.WriteReq_mshr_miss_rate::cpu.data     0.058325                       # mshr miss rate for WriteReq accesses
system.cpu.dcache.WriteReq_mshr_miss_rate::total     0.058325                       # mshr miss rate for WriteReq accesses
system.cpu.dcache.demand_mshr_miss_rate::cpu.data     0.115960                       # mshr miss rate for demand accesses
system.cpu.dcache.demand_mshr_miss_rate::total     0.115960                       # mshr miss rate for demand accesses
system.cpu.dcache.overall_mshr_miss_rate::cpu.data     0.115960                       # mshr miss rate for overall accesses
system.cpu.dcache.overall_mshr_miss_rate::total     0.115960                       # mshr miss rate for overall accesses
system.cpu.dcache.ReadReq_avg_mshr_miss_latency::cpu.data 52476.757370                       # average ReadReq mshr miss latency
system.cpu.dcache.ReadReq_avg_mshr_miss_latency::total 52476.757370                       # average ReadReq mshr miss latency
system.cpu.dcache.WriteReq_avg_mshr_miss_latency::cpu.data 48305.555556                       # average WriteReq mshr miss latency
system.cpu.dcache.WriteReq_avg_mshr_miss_latency::total 48305.555556                       # average WriteReq mshr miss latency
system.cpu.dcache.demand_avg_mshr_miss_latency::cpu.data 51602.150538                       # average overall mshr miss latency
system.cpu.dcache.demand_avg_mshr_miss_latency::total 51602.150538                       # average overall mshr miss latency
system.cpu.dcache.overall_avg_mshr_miss_latency::cpu.data 51602.150538                       # average overall mshr miss latency
system.cpu.dcache.overall_avg_mshr_miss_latency::total 51602.150538                       # average overall mshr miss latency
system.cpu.dcache.no_allocate_misses                0                       # Number of misses that were no-allocate
system.cpu.icache.tags.replacements               141                       # number of replacements
system.cpu.icache.tags.tagsinuse           225.096278                       # Cycle average of tags in use
system.cpu.icache.tags.total_refs                8212                       # Total number of references to valid blocks.
system.cpu.icache.tags.sampled_refs               534                       # Sample count of references to valid blocks.
system.cpu.icache.tags.avg_refs             15.378277                       # Average number of references to valid blocks.
system.cpu.icache.tags.warmup_cycle                 0                       # Cycle when the warmup percentage was hit.
system.cpu.icache.tags.occ_blocks::cpu.inst   225.096278                       # Average occupied blocks per requestor
system.cpu.icache.tags.occ_percent::cpu.inst     0.439641                       # Average percentage of cache occupancy
system.cpu.icache.tags.occ_percent::total     0.439641                       # Average percentage of cache occupancy
system.cpu.icache.tags.occ_task_id_blocks::1024          393                       # Occupied blocks per task id
system.cpu.icache.tags.age_task_id_blocks_1024::0          148                       # Occupied blocks per task id
system.cpu.icache.tags.age_task_id_blocks_1024::1          245                       # Occupied blocks per task id
system.cpu.icache.tags.occ_task_id_percent::1024     0.767578                       # Percentage of cache occupancy per task id
system.cpu.icache.tags.tag_accesses             18272                       # Number of tag accesses
system.cpu.icache.tags.data_accesses            18272                       # Number of data accesses
system.cpu.icache.ReadReq_hits::cpu.inst         8212                       # number of ReadReq hits
system.cpu.icache.ReadReq_hits::total            8212                       # number of ReadReq hits
system.cpu.icache.demand_hits::cpu.inst          8212                       # number of demand (read+write) hits
system.cpu.icache.demand_hits::total             8212                       # number of demand (read+write) hits
system.cpu.icache.overall_hits::cpu.inst         8212                       # number of overall hits
system.cpu.icache.overall_hits::total            8212                       # number of overall hits
system.cpu.icache.ReadReq_misses::cpu.inst          657                       # number of ReadReq misses
system.cpu.icache.ReadReq_misses::total           657                       # number of ReadReq misses
system.cpu.icache.demand_misses::cpu.inst          657                       # number of demand (read+write) misses
system.cpu.icache.demand_misses::total            657                       # number of demand (read+write) misses
system.cpu.icache.overall_misses::cpu.inst          657                       # number of overall misses
system.cpu.icache.overall_misses::total           657                       # number of overall misses
system.cpu.icache.ReadReq_miss_latency::cpu.inst     34995490                       # number of ReadReq miss cycles
system.cpu.icache.ReadReq_miss_latency::total     34995490                       # number of ReadReq miss cycles
system.cpu.icache.demand_miss_latency::cpu.inst     34995490                       # number of demand (read+write) miss cycles
system.cpu.icache.demand_miss_latency::total     34995490                       # number of demand (read+write) miss cycles
system.cpu.icache.overall_miss_latency::cpu.inst     34995490                       # number of overall miss cycles
system.cpu.icache.overall_miss_latency::total     34995490                       # number of overall miss cycles
system.cpu.icache.ReadReq_accesses::cpu.inst         8869                       # number of ReadReq accesses(hits+misses)
system.cpu.icache.ReadReq_accesses::total         8869                       # number of ReadReq accesses(hits+misses)
system.cpu.icache.demand_accesses::cpu.inst         8869                       # number of demand (read+write) accesses
system.cpu.icache.demand_accesses::total         8869                       # number of demand (read+write) accesses
system.cpu.icache.overall_accesses::cpu.inst         8869                       # number of overall (read+write) accesses
system.cpu.icache.overall_accesses::total         8869                       # number of overall (read+write) accesses
system.cpu.icache.ReadReq_miss_rate::cpu.inst     0.074078                       # miss rate for ReadReq accesses
system.cpu.icache.ReadReq_miss_rate::total     0.074078                       # miss rate for ReadReq accesses
system.cpu.icache.demand_miss_rate::cpu.inst     0.074078                       # miss rate for demand accesses
system.cpu.icache.demand_miss_rate::total     0.074078                       # miss rate for demand accesses
system.cpu.icache.overall_miss_rate::cpu.inst     0.074078                       # miss rate for overall accesses
system.cpu.icache.overall_miss_rate::total     0.074078                       # miss rate for overall accesses
system.cpu.icache.ReadReq_avg_miss_latency::cpu.inst 53265.585997                       # average ReadReq miss latency
system.cpu.icache.ReadReq_avg_miss_latency::total 53265.585997                       # average ReadReq miss latency
system.cpu.icache.demand_avg_miss_latency::cpu.inst 53265.585997                       # average overall miss latency
system.cpu.icache.demand_avg_miss_latency::total 53265.585997                       # average overall miss latency
system.cpu.icache.overall_avg_miss_latency::cpu.inst 53265.585997                       # average overall miss latency
system.cpu.icache.overall_avg_miss_latency::total 53265.585997                       # average overall miss latency
system.cpu.icache.blocked_cycles::no_mshrs        11381                       # number of cycles access was blocked
system.cpu.icache.blocked_cycles::no_targets            1                       # number of cycles access was blocked
system.cpu.icache.blocked::no_mshrs               156                       # number of cycles access was blocked
system.cpu.icache.blocked::no_targets               1                       # number of cycles access was blocked
system.cpu.icache.avg_blocked_cycles::no_mshrs    72.955128                       # average number of cycles each access was blocked
system.cpu.icache.avg_blocked_cycles::no_targets            1                       # average number of cycles each access was blocked
system.cpu.icache.fast_writes                       0                       # number of fast writes performed
system.cpu.icache.cache_copies                      0                       # number of cache copies performed
system.cpu.icache.ReadReq_mshr_hits::cpu.inst          122                       # number of ReadReq MSHR hits
system.cpu.icache.ReadReq_mshr_hits::total          122                       # number of ReadReq MSHR hits
system.cpu.icache.demand_mshr_hits::cpu.inst          122                       # number of demand (read+write) MSHR hits
system.cpu.icache.demand_mshr_hits::total          122                       # number of demand (read+write) MSHR hits
system.cpu.icache.overall_mshr_hits::cpu.inst          122                       # number of overall MSHR hits
system.cpu.icache.overall_mshr_hits::total          122                       # number of overall MSHR hits
system.cpu.icache.ReadReq_mshr_misses::cpu.inst          535                       # number of ReadReq MSHR misses
system.cpu.icache.ReadReq_mshr_misses::total          535                       # number of ReadReq MSHR misses
system.cpu.icache.demand_mshr_misses::cpu.inst          535                       # number of demand (read+write) MSHR misses
system.cpu.icache.demand_mshr_misses::total          535                       # number of demand (read+write) MSHR misses
system.cpu.icache.overall_mshr_misses::cpu.inst          535                       # number of overall MSHR misses
system.cpu.icache.overall_mshr_misses::total          535                       # number of overall MSHR misses
system.cpu.icache.ReadReq_mshr_miss_latency::cpu.inst     29777993                       # number of ReadReq MSHR miss cycles
system.cpu.icache.ReadReq_mshr_miss_latency::total     29777993                       # number of ReadReq MSHR miss cycles
system.cpu.icache.demand_mshr_miss_latency::cpu.inst     29777993                       # number of demand (read+write) MSHR miss cycles
system.cpu.icache.demand_mshr_miss_latency::total     29777993                       # number of demand (read+write) MSHR miss cycles
system.cpu.icache.overall_mshr_miss_latency::cpu.inst     29777993                       # number of overall MSHR miss cycles
system.cpu.icache.overall_mshr_miss_latency::total     29777993                       # number of overall MSHR miss cycles
system.cpu.icache.ReadReq_mshr_miss_rate::cpu.inst     0.060322                       # mshr miss rate for ReadReq accesses
system.cpu.icache.ReadReq_mshr_miss_rate::total     0.060322                       # mshr miss rate for ReadReq accesses
system.cpu.icache.demand_mshr_miss_rate::cpu.inst     0.060322                       # mshr miss rate for demand accesses
system.cpu.icache.demand_mshr_miss_rate::total     0.060322                       # mshr miss rate for demand accesses
system.cpu.icache.overall_mshr_miss_rate::cpu.inst     0.060322                       # mshr miss rate for overall accesses
system.cpu.icache.overall_mshr_miss_rate::total     0.060322                       # mshr miss rate for overall accesses
system.cpu.icache.ReadReq_avg_mshr_miss_latency::cpu.inst 55659.800000                       # average ReadReq mshr miss latency
system.cpu.icache.ReadReq_avg_mshr_miss_latency::total 55659.800000                       # average ReadReq mshr miss latency
system.cpu.icache.demand_avg_mshr_miss_latency::cpu.inst 55659.800000                       # average overall mshr miss latency
system.cpu.icache.demand_avg_mshr_miss_latency::total 55659.800000                       # average overall mshr miss latency
system.cpu.icache.overall_avg_mshr_miss_latency::cpu.inst 55659.800000                       # average overall mshr miss latency
system.cpu.icache.overall_avg_mshr_miss_latency::total 55659.800000                       # average overall mshr miss latency
system.cpu.icache.no_allocate_misses                0                       # Number of misses that were no-allocate
system.membus.trans_dist::ReadReq                 976                       # Transaction distribution
system.membus.trans_dist::ReadResp                975                       # Transaction distribution
system.membus.trans_dist::Writeback               184                       # Transaction distribution
system.membus.trans_dist::ReadExReq               117                       # Transaction distribution
system.membus.trans_dist::ReadExResp              117                       # Transaction distribution
system.membus.pkt_count_system.cpu.icache.mem_side::system.mem_ctrls.port         1069                       # Packet count per connected master and slave (bytes)
system.membus.pkt_count_system.cpu.dcache.mem_side::system.mem_ctrls.port         1300                       # Packet count per connected master and slave (bytes)
system.membus.pkt_count::total                   2369                       # Packet count per connected master and slave (bytes)
system.membus.pkt_size_system.cpu.icache.mem_side::system.mem_ctrls.port        34176                       # Cumulative packet size per connected master and slave (bytes)
system.membus.pkt_size_system.cpu.dcache.mem_side::system.mem_ctrls.port        47488                       # Cumulative packet size per connected master and slave (bytes)
system.membus.pkt_size::total                   81664                       # Cumulative packet size per connected master and slave (bytes)
system.membus.snoops                                0                       # Total snoops (count)
system.membus.snoop_fanout::samples              1277                       # Request fanout histogram
system.membus.snoop_fanout::mean                    1                       # Request fanout histogram
system.membus.snoop_fanout::stdev                   0                       # Request fanout histogram
system.membus.snoop_fanout::underflows              0      0.00%      0.00% # Request fanout histogram
system.membus.snoop_fanout::0                       0      0.00%      0.00% # Request fanout histogram
system.membus.snoop_fanout::1                    1277    100.00%    100.00% # Request fanout histogram
system.membus.snoop_fanout::2                       0      0.00%    100.00% # Request fanout histogram
system.membus.snoop_fanout::overflows               0      0.00%    100.00% # Request fanout histogram
system.membus.snoop_fanout::min_value               1                       # Request fanout histogram
system.membus.snoop_fanout::max_value               1                       # Request fanout histogram
system.membus.snoop_fanout::total                1277                       # Request fanout histogram
system.membus.reqLayer0.occupancy             2286500                       # Layer occupancy (ticks)
system.membus.reqLayer0.utilization               6.5                       # Layer utilization (%)
system.membus.respLayer1.occupancy            2844250                       # Layer occupancy (ticks)
system.membus.respLayer1.utilization              8.1                       # Layer utilization (%)
system.membus.respLayer2.occupancy            2943000                       # Layer occupancy (ticks)
system.membus.respLayer2.utilization              8.3                       # Layer utilization (%)

---------- End Simulation Statistics   ----------
