gem5 Simulator System.  http://gem5.org
gem5 is copyrighted software; use the --copyright option for details.

gem5 compiled Apr 14 2022 20:49:56
gem5 started Apr 14 2022 22:19:57
gem5 executing on monkeyking-VirtualBox
command line: ./build/ARM/gem5.opt -re -d ca_project2 --stdout-file=bitcount_timing_stdout.txt --stderr-file=bitcount_timing_stderr.txt --stats-file=bitcount_timing_stats.txt configs/example/se.py -c /home/monkeyking/ca_project2/mibench/automotive/bitcount/bitcnts --cpu-type=timing -o 3000

Global frequency set at 1000000000000 ticks per second
**** REAL SIMULATION ****
info: Entering event queue @ 0.  Starting simulation...
info: Increasing stack size by one page.
Bit counter algorithm benchmark

Optimized 1 bit/loop counter          > Time:   0.011 sec.; Bits: 51410
Ratko's mystery algorithm             > Time:   0.005 sec.; Bits: 50681
Recursive bit count by nybbles        > Time:   0.008 sec.; Bits: 46333
Non-recursive bit count by nybbles    > Time:   0.006 sec.; Bits: 48551
Non-recursive bit count by bytes (BW) > Time:   0.006 sec.; Bits: 46818
Non-recursive bit count by bytes (AR) > Time:   0.004 sec.; Bits: 43132
Shift and count bits                  > Time:   0.050 sec.; Bits: 46265

Best  > Non-recursive bit count by bytes (AR)
Worst > Shift and count bits
Exiting @ tick 93369335000 because target called exit()
